950107
  -OEChem-06122616373D

 23 24  0     0  0  0  0  0  0999 V2000
   -1.7829   -0.4752    0.0002 N   0  3  0  0  0  0  0  0  0  0  0  0
    2.6425    1.6139    0.0004 N   0  0  0  0  0  0  0  0  0  0  0  0
   -0.3901   -0.5709    0.0003 C   0  0  0  0  0  0  0  0  0  0  0  0
    0.3987    0.6032    0.0002 C   0  0  0  0  0  0  0  0  0  0  0  0
    1.7968    0.4781   -0.0002 C   0  0  0  0  0  0  0  0  0  0  0  0
    0.2203   -1.8323    0.0001 C   0  0  0  0  0  0  0  0  0  0  0  0
   -0.2371    1.8507   -0.0001 C   0  0  0  0  0  0  0  0  0  0  0  0
   -2.3820    0.7695   -0.0002 C   0  0  0  0  0  0  0  0  0  0  0  0
   -1.6251    1.9337   -0.0002 C   0  0  0  0  0  0  0  0  0  0  0  0
    2.3965   -0.7833   -0.0004 C   0  0  0  0  0  0  0  0  0  0  0  0
   -2.6481   -1.6528    0.0001 C   0  0  0  0  0  0  0  0  0  0  0  0
    1.6106   -1.9346   -0.0001 C   0  0  0  0  0  0  0  0  0  0  0  0
   -0.3521   -2.7543    0.0002 H   0  0  0  0  0  0  0  0  0  0  0  0
    0.3116    2.7873   -0.0003 H   0  0  0  0  0  0  0  0  0  0  0  0
   -3.4653    0.7911   -0.0004 H   0  0  0  0  0  0  0  0  0  0  0  0
   -2.1153    2.9022   -0.0005 H   0  0  0  0  0  0  0  0  0  0  0  0
    3.4792   -0.8836   -0.0006 H   0  0  0  0  0  0  0  0  0  0  0  0
   -2.4444   -2.2305    0.9053 H   0  0  0  0  0  0  0  0  0  0  0  0
   -3.6997   -1.3550    0.0001 H   0  0  0  0  0  0  0  0  0  0  0  0
   -2.4444   -2.2303   -0.9053 H   0  0  0  0  0  0  0  0  0  0  0  0
    2.0826   -2.9129   -0.0002 H   0  0  0  0  0  0  0  0  0  0  0  0
    3.6459    1.4812   -0.0006 H   0  0  0  0  0  0  0  0  0  0  0  0
    2.2784    2.5544   -0.0009 H   0  0  0  0  0  0  0  0  0  0  0  0
  1  3  1  0  0  0  0
  1  8  2  0  0  0  0
  1 11  1  0  0  0  0
  2  5  1  0  0  0  0
  2 22  1  0  0  0  0
  2 23  1  0  0  0  0
  3  4  1  0  0  0  0
  3  6  2  0  0  0  0
  4  5  2  0  0  0  0
  4  7  1  0  0  0  0
  5 10  1  0  0  0  0
  6 12  1  0  0  0  0
  6 13  1  0  0  0  0
  7  9  2  0  0  0  0
  7 14  1  0  0  0  0
  8  9  1  0  0  0  0
  8 15  1  0  0  0  0
  9 16  1  0  0  0  0
 10 12  2  0  0  0  0
 10 17  1  0  0  0  0
 11 18  1  0  0  0  0
 11 19  1  0  0  0  0
 11 20  1  0  0  0  0
 12 21  1  0  0  0  0
M  CHG  1   1   1
M  END
> <PUBCHEM_COMPOUND_CID>
950107

> <PUBCHEM_CONFORMER_RMSD>
0.4

> <PUBCHEM_CONFORMER_DIVERSEORDER>
1

> <PUBCHEM_MMFF94_PARTIAL_CHARGES>
19
1 -0.21
10 -0.15
11 0.49
12 -0.15
13 0.15
14 0.15
15 0.15
16 0.15
17 0.15
2 -0.9
21 0.15
22 0.4
23 0.4
3 0.36
5 0.1
6 -0.15
7 -0.15
8 0.21
9 -0.15

> <PUBCHEM_EFFECTIVE_ROTOR_COUNT>
0

> <PUBCHEM_PHARMACOPHORE_FEATURES>
4
1 2 cation
1 2 donor
6 1 3 4 7 8 9 rings
6 3 4 5 6 10 12 rings

> <PUBCHEM_HEAVY_ATOM_COUNT>
12

> <PUBCHEM_ATOM_DEF_STEREO_COUNT>
0

> <PUBCHEM_ATOM_UDEF_STEREO_COUNT>
0

> <PUBCHEM_BOND_DEF_STEREO_COUNT>
0

> <PUBCHEM_BOND_UDEF_STEREO_COUNT>
0

> <PUBCHEM_ISOTOPIC_ATOM_COUNT>
0

> <PUBCHEM_COMPONENT_COUNT>
1

> <PUBCHEM_CACTVS_TAUTO_COUNT>
1

> <PUBCHEM_CONFORMER_ID>
000E7F5B00000001

> <PUBCHEM_MMFF94_ENERGY>
54.0613

> <PUBCHEM_FEATURE_SELFOVERLAP>
20.325

> <PUBCHEM_SHAPE_FINGERPRINT>
10967382 1 18050285868996252903
11206711 2 18337398153591977886
12423570 1 12103546572635585290
12524768 44 18265618680192859551
12897270 3 18410573980861758732
13380535 21 18339939116252539817
16945 1 18194402186590459366
17990270 104 18268147552621015822
193761 8 18338517439085569414
19973954 147 18339080389091751234
21040471 1 17978228253488737254
21501502 16 18410575050303347067
2334 1 18410574023806163303
23552423 10 18334298634507965462
23559900 14 17983019939150826686
241688 4 18409449167724125465
25 1 16674990186619738621
2748010 2 18410855468718103039
5084963 1 18202283580607155394
5255222 1 18192993725254591388
528886 8 18339356375058072739
66348 1 18338516335289510911
7364860 26 18271242712587139190

> <PUBCHEM_SHAPE_MULTIPOLES>
236.99
3.65
2.44
0.6
0.07
0.03
0
0.15
0
0.18
0
0.01
0.01
0

> <PUBCHEM_SHAPE_SELFOVERLAP>
514.223

> <PUBCHEM_SHAPE_VOLUME>
129.5

> <PUBCHEM_COORDINATE_TYPE>
2
5
10

$$$$
