6918296
  -OEChem-06122620073D

 67 71  0     1  0  0  0  0  0999 V2000
   -3.7848    4.0485    1.1012 F   0  0  0  0  0  0  0  0  0  0  0  0
   -2.8659    2.5362    2.3553 F   0  0  0  0  0  0  0  0  0  0  0  0
   -2.0286    2.9765    0.3973 F   0  0  0  0  0  0  0  0  0  0  0  0
   -7.8294   -0.6661   -1.7656 F   0  0  0  0  0  0  0  0  0  0  0  0
   -6.0869   -1.7492   -2.4690 F   0  0  0  0  0  0  0  0  0  0  0  0
   -6.9218   -2.1926   -0.5108 F   0  0  0  0  0  0  0  0  0  0  0  0
   -2.2972   -2.2332    0.2693 O   0  0  0  0  0  0  0  0  0  0  0  0
    8.8065    1.5560   -1.0225 O   0  0  0  0  0  0  0  0  0  0  0  0
    7.2983   -0.0230   -0.2781 N   0  0  0  0  0  0  0  0  0  0  0  0
   -2.3800    0.0627    0.7784 N   0  0  0  0  0  0  0  0  0  0  0  0
    1.8964   -1.4422    1.1538 C   0  0  2  0  0  0  0  0  0  0  0  0
    0.6993   -0.9490    0.3120 C   0  0  2  0  0  0  0  0  0  0  0  0
    3.2282   -1.3679    0.3987 C   0  0  1  0  0  0  0  0  0  0  0  0
    3.4923    0.1266    0.0045 C   0  0  1  0  0  0  0  0  0  0  0  0
    4.8739    0.2929   -0.7229 C   0  0  1  0  0  0  0  0  0  0  0  0
    0.9402    0.5279   -0.0297 C   0  0  0  0  0  0  0  0  0  0  0  0
   -0.4389   -1.2036    1.3250 C   0  0  2  0  0  0  0  0  0  0  0  0
    2.2820    0.7325   -0.7575 C   0  0  0  0  0  0  0  0  0  0  0  0
    1.4192   -2.7867    1.6917 C   0  0  0  0  0  0  0  0  0  0  0  0
    4.3810   -1.9527    1.2300 C   0  0  0  0  0  0  0  0  0  0  0  0
   -0.0776   -2.5584    1.9700 C   0  0  0  0  0  0  0  0  0  0  0  0
    5.9608   -0.2888    0.2257 C   0  0  1  0  0  0  0  0  0  0  0  0
    5.7393   -1.7616    0.5582 C   0  0  0  0  0  0  0  0  0  0  0  0
    0.4719   -1.7568   -0.9930 C   0  0  0  0  0  0  0  0  0  0  0  0
    4.8737   -0.3965   -2.1086 C   0  0  0  0  0  0  0  0  0  0  0  0
    5.2591    1.7475   -0.9578 C   0  0  0  0  0  0  0  0  0  0  0  0
   -1.8117   -1.2038    0.7271 C   0  0  0  0  0  0  0  0  0  0  0  0
    6.5302    2.1771   -0.9527 C   0  0  0  0  0  0  0  0  0  0  0  0
    7.6549    1.2222   -0.7574 C   0  0  0  0  0  0  0  0  0  0  0  0
   -3.6586    0.4521    0.3135 C   0  0  0  0  0  0  0  0  0  0  0  0
   -4.0757    1.7676    0.4406 C   0  0  0  0  0  0  0  0  0  0  0  0
   -4.4730   -0.5082   -0.2665 C   0  0  0  0  0  0  0  0  0  0  0  0
   -5.7364   -0.1433   -0.7315 C   0  0  0  0  0  0  0  0  0  0  0  0
   -5.3392    2.1324   -0.0242 C   0  0  0  0  0  0  0  0  0  0  0  0
   -3.2073    2.8125    1.0633 C   0  0  0  0  0  0  0  0  0  0  0  0
   -6.1695    1.1770   -0.6104 C   0  0  0  0  0  0  0  0  0  0  0  0
   -6.6247   -1.1646   -1.3579 C   0  0  0  0  0  0  0  0  0  0  0  0
    1.9982   -0.7831    2.0327 H   0  0  0  0  0  0  0  0  0  0  0  0
    3.1536   -1.9761   -0.5086 H   0  0  0  0  0  0  0  0  0  0  0  0
    3.5611    0.6951    0.9460 H   0  0  0  0  0  0  0  0  0  0  0  0
    0.9451    1.1313    0.8874 H   0  0  0  0  0  0  0  0  0  0  0  0
    0.1264    0.9190   -0.6519 H   0  0  0  0  0  0  0  0  0  0  0  0
   -0.3975   -0.4485    2.1238 H   0  0  0  0  0  0  0  0  0  0  0  0
    2.2124    0.3065   -1.7631 H   0  0  0  0  0  0  0  0  0  0  0  0
    2.4213    1.8104   -0.8906 H   0  0  0  0  0  0  0  0  0  0  0  0
    1.9519   -3.0797    2.6021 H   0  0  0  0  0  0  0  0  0  0  0  0
    1.5565   -3.5860    0.9550 H   0  0  0  0  0  0  0  0  0  0  0  0
    4.2184   -3.0234    1.3994 H   0  0  0  0  0  0  0  0  0  0  0  0
    4.4012   -1.4770    2.2190 H   0  0  0  0  0  0  0  0  0  0  0  0
   -0.6575   -3.4061    1.5906 H   0  0  0  0  0  0  0  0  0  0  0  0
   -0.2602   -2.5129    3.0503 H   0  0  0  0  0  0  0  0  0  0  0  0
    5.9194    0.2628    1.1784 H   0  0  0  0  0  0  0  0  0  0  0  0
    6.5262   -2.1155    1.2359 H   0  0  0  0  0  0  0  0  0  0  0  0
    5.8117   -2.3832   -0.3415 H   0  0  0  0  0  0  0  0  0  0  0  0
   -0.3613   -1.3372   -1.5687 H   0  0  0  0  0  0  0  0  0  0  0  0
    1.3413   -1.7448   -1.6553 H   0  0  0  0  0  0  0  0  0  0  0  0
    0.2371   -2.8084   -0.8005 H   0  0  0  0  0  0  0  0  0  0  0  0
    4.1896    0.1015   -2.8048 H   0  0  0  0  0  0  0  0  0  0  0  0
    5.8652   -0.3712   -2.5760 H   0  0  0  0  0  0  0  0  0  0  0  0
    4.5787   -1.4477   -2.0577 H   0  0  0  0  0  0  0  0  0  0  0  0
    4.4819    2.4715   -1.1796 H   0  0  0  0  0  0  0  0  0  0  0  0
    8.0342   -0.7021   -0.1091 H   0  0  0  0  0  0  0  0  0  0  0  0
    6.7755    3.2119   -1.1619 H   0  0  0  0  0  0  0  0  0  0  0  0
   -1.8211    0.8062    1.1893 H   0  0  0  0  0  0  0  0  0  0  0  0
   -4.2061   -1.5467   -0.3936 H   0  0  0  0  0  0  0  0  0  0  0  0
   -5.6971    3.1548    0.0599 H   0  0  0  0  0  0  0  0  0  0  0  0
   -7.1502    1.4804   -0.9665 H   0  0  0  0  0  0  0  0  0  0  0  0
  1 35  1  0  0  0  0
  2 35  1  0  0  0  0
  3 35  1  0  0  0  0
  4 37  1  0  0  0  0
  5 37  1  0  0  0  0
  6 37  1  0  0  0  0
  7 27  2  0  0  0  0
  8 29  2  0  0  0  0
  9 22  1  0  0  0  0
  9 29  1  0  0  0  0
  9 62  1  0  0  0  0
 10 27  1  0  0  0  0
 10 30  1  0  0  0  0
 10 64  1  0  0  0  0
 11 12  1  0  0  0  0
 11 13  1  0  0  0  0
 11 19  1  0  0  0  0
 11 38  1  0  0  0  0
 12 16  1  0  0  0  0
 12 17  1  0  0  0  0
 12 24  1  0  0  0  0
 13 14  1  0  0  0  0
 13 20  1  0  0  0  0
 13 39  1  0  0  0  0
 14 15  1  0  0  0  0
 14 18  1  0  0  0  0
 14 40  1  0  0  0  0
 15 22  1  0  0  0  0
 15 25  1  0  0  0  0
 15 26  1  0  0  0  0
 16 18  1  0  0  0  0
 16 41  1  0  0  0  0
 16 42  1  0  0  0  0
 17 21  1  0  0  0  0
 17 27  1  0  0  0  0
 17 43  1  0  0  0  0
 18 44  1  0  0  0  0
 18 45  1  0  0  0  0
 19 21  1  0  0  0  0
 19 46  1  0  0  0  0
 19 47  1  0  0  0  0
 20 23  1  0  0  0  0
 20 48  1  0  0  0  0
 20 49  1  0  0  0  0
 21 50  1  0  0  0  0
 21 51  1  0  0  0  0
 22 23  1  0  0  0  0
 22 52  1  0  0  0  0
 23 53  1  0  0  0  0
 23 54  1  0  0  0  0
 24 55  1  0  0  0  0
 24 56  1  0  0  0  0
 24 57  1  0  0  0  0
 25 58  1  0  0  0  0
 25 59  1  0  0  0  0
 25 60  1  0  0  0  0
 26 28  2  0  0  0  0
 26 61  1  0  0  0  0
 28 29  1  0  0  0  0
 28 63  1  0  0  0  0
 30 31  2  0  0  0  0
 30 32  1  0  0  0  0
 31 34  1  0  0  0  0
 31 35  1  0  0  0  0
 32 33  2  0  0  0  0
 32 65  1  0  0  0  0
 33 36  1  0  0  0  0
 33 37  1  0  0  0  0
 34 36  2  0  0  0  0
 34 66  1  0  0  0  0
 36 67  1  0  0  0  0
M  END
> <PUBCHEM_COMPOUND_CID>
6918296

> <PUBCHEM_CONFORMER_RMSD>
1

> <PUBCHEM_CONFORMER_DIVERSEORDER>
1
8
4
5
2
7
6
3

> <PUBCHEM_MMFF94_PARTIAL_CHARGES>
32
1 -0.34
10 -0.55
15 0.14
17 0.06
2 -0.34
22 0.3
26 -0.29
27 0.57
28 -0.14
29 0.62
3 -0.34
30 0.12
31 -0.14
32 -0.15
33 -0.14
34 -0.15
35 1.16
36 -0.15
37 1.16
4 -0.34
5 -0.34
6 -0.34
61 0.15
62 0.37
63 0.15
64 0.37
65 0.15
66 0.15
67 0.15
7 -0.57
8 -0.57
9 -0.73

> <PUBCHEM_EFFECTIVE_ROTOR_COUNT>
6.6

> <PUBCHEM_PHARMACOPHORE_FEATURES>
9
1 10 donor
1 7 acceptor
1 8 acceptor
1 9 donor
5 11 12 17 19 21 rings
6 11 12 13 14 16 18 rings
6 13 14 15 20 22 23 rings
6 30 31 32 33 34 36 rings
6 9 15 22 26 28 29 rings

> <PUBCHEM_HEAVY_ATOM_COUNT>
37

> <PUBCHEM_ATOM_DEF_STEREO_COUNT>
7

> <PUBCHEM_ATOM_UDEF_STEREO_COUNT>
0

> <PUBCHEM_BOND_DEF_STEREO_COUNT>
0

> <PUBCHEM_BOND_UDEF_STEREO_COUNT>
0

> <PUBCHEM_ISOTOPIC_ATOM_COUNT>
0

> <PUBCHEM_COMPONENT_COUNT>
1

> <PUBCHEM_CACTVS_TAUTO_COUNT>
4

> <PUBCHEM_CONFORMER_ID>
0069909800000001

> <PUBCHEM_MMFF94_ENERGY>
111.369

> <PUBCHEM_FEATURE_SELFOVERLAP>
45.767

> <PUBCHEM_SHAPE_FINGERPRINT>
10595046 47 18411698747060973395
10670039 82 18413387626980824657
11007060 377 18113905961137020225
11513181 2 18126010360241347975
11524674 6 13551474778153308337
11578080 2 11676035643826280838
12107698 1 18201999953936602205
12144603 126 18411419476331309565
12236239 1 18337386054632493275
12422481 6 16225775107776685766
12788726 201 18343012269402876939
13540713 5 18192987111458441963
13631057 29 18273211989679369217
13673619 4 15985101938278784619
13782708 43 16272199787167687103
14068700 675 18272083916392818505
14294032 229 17917436376607891769
14394314 77 18334864866197358885
14767858 380 18409160026652966163
14790565 3 18188497874259549328
14856354 85 18131062784270952055
14931854 50 18410011026756171781
15064981 113 17988074474736797006
15064981 194 18042986438969956431
15142383 8 15285354034027308678
15183329 4 18411138034875151470
15289351 153 18408041819813194856
15351339 4 18335697230906154152
15419008 47 16559027186007473529
15461852 350 18131354120233389788
1577012 14 18335984185854484081
16112460 7 18186523181514960448
18608769 82 18188220917509819939
18681886 176 18059567018550562185
21033648 144 17676203555296248575
21033648 29 15285638738640376255
21150785 3 18060421343654741566
21298829 104 18113902645696950916
21796203 349 18127709317204216219
23516275 100 18055058016277957824
249057 25 18337104549696364186
25269216 80 17060344032867350347
2838139 119 18261394420748430664
312425 54 10881689039494958540
335352 9 18113902650946803966
34797466 226 16845282882774043818
3552219 110 18408047308623273217
3633792 109 17967526857086714599
397830 11 13190924050664916876
4073 2 17531537572330374962
4169191 19 18040158422439184900
44802255 64 17774171218526501358
44880568 143 17274832328987875088
46194498 28 16988832904513908208
5104073 3 17530972393235945922
54039377 194 12175626187329470788
563151 74 15285634382915850048
6009941 240 16443350905397996176
6058803 2 18049432644390587539
6328613 192 18334017190234348952
6371009 1 18186804681850466588
6608658 132 18410292484806266349
70634741 139 17676770968079640619
9953998 17 11169911719075831796
9961470 85 17899701451178171308
999808 66 13326857751201632405

> <PUBCHEM_SHAPE_MULTIPOLES>
696.1
21.89
3.34
1.68
4.4
1.11
-0.19
7.81
-10.98
-1.34
1.55
-1.63
-0.23
-4.05

> <PUBCHEM_SHAPE_SELFOVERLAP>
1520.014

> <PUBCHEM_SHAPE_VOLUME>
379

> <PUBCHEM_COORDINATE_TYPE>
2
5
10

$$$$
