13294447
  -OEChem-06122613513D

 26 26  0     0  0  0  0  0  0999 V2000
   -2.6477    1.5808    0.2288 O   0  0  0  0  0  0  0  0  0  0  0  0
   -5.0780    0.9162    0.0596 O   0  0  0  0  0  0  0  0  0  0  0  0
   -4.4904   -1.2902   -0.1633 O   0  0  0  0  0  0  0  0  0  0  0  0
   -0.3154   -0.0655    0.0803 C   0  0  0  0  0  0  0  0  0  0  0  0
    0.7814   -1.1171   -0.1199 C   0  0  0  0  0  0  0  0  0  0  0  0
   -1.7179   -0.6574   -0.0530 C   0  0  0  0  0  0  0  0  0  0  0  0
    2.1569   -0.5024   -0.0618 C   0  0  0  0  0  0  0  0  0  0  0  0
    2.7438   -0.0342   -1.2280 C   0  0  0  0  0  0  0  0  0  0  0  0
    2.8133   -0.4152    1.1568 C   0  0  0  0  0  0  0  0  0  0  0  0
   -2.8104    0.3808    0.0658 C   0  0  0  0  0  0  0  0  0  0  0  0
    4.0165    0.5341   -1.1743 C   0  0  0  0  0  0  0  0  0  0  0  0
    4.0860    0.1532    1.2105 C   0  0  0  0  0  0  0  0  0  0  0  0
    4.6875    0.6278    0.0449 C   0  0  0  0  0  0  0  0  0  0  0  0
   -4.2256   -0.1110   -0.0465 C   0  0  0  0  0  0  0  0  0  0  0  0
   -0.2087    0.4045    1.0666 H   0  0  0  0  0  0  0  0  0  0  0  0
   -0.1929    0.7409   -0.6548 H   0  0  0  0  0  0  0  0  0  0  0  0
    0.6474   -1.6221   -1.0852 H   0  0  0  0  0  0  0  0  0  0  0  0
    0.6927   -1.9019    0.6423 H   0  0  0  0  0  0  0  0  0  0  0  0
   -1.8208   -1.1416   -1.0307 H   0  0  0  0  0  0  0  0  0  0  0  0
   -1.8730   -1.4091    0.7291 H   0  0  0  0  0  0  0  0  0  0  0  0
    2.2285   -0.1009   -2.1820 H   0  0  0  0  0  0  0  0  0  0  0  0
    2.3524   -0.7803    2.0702 H   0  0  0  0  0  0  0  0  0  0  0  0
    4.4848    0.9042   -2.0817 H   0  0  0  0  0  0  0  0  0  0  0  0
    4.6083    0.2268    2.1598 H   0  0  0  0  0  0  0  0  0  0  0  0
    5.6784    1.0707    0.0867 H   0  0  0  0  0  0  0  0  0  0  0  0
   -6.0147    0.6284    0.0150 H   0  0  0  0  0  0  0  0  0  0  0  0
  1 10  2  0  0  0  0
  2 14  1  0  0  0  0
  2 26  1  0  0  0  0
  3 14  2  0  0  0  0
  4  5  1  0  0  0  0
  4  6  1  0  0  0  0
  4 15  1  0  0  0  0
  4 16  1  0  0  0  0
  5  7  1  0  0  0  0
  5 17  1  0  0  0  0
  5 18  1  0  0  0  0
  6 10  1  0  0  0  0
  6 19  1  0  0  0  0
  6 20  1  0  0  0  0
  7  8  2  0  0  0  0
  7  9  1  0  0  0  0
  8 11  1  0  0  0  0
  8 21  1  0  0  0  0
  9 12  2  0  0  0  0
  9 22  1  0  0  0  0
 10 14  1  0  0  0  0
 11 13  2  0  0  0  0
 11 23  1  0  0  0  0
 12 13  1  0  0  0  0
 12 24  1  0  0  0  0
 13 25  1  0  0  0  0
M  END
> <PUBCHEM_COMPOUND_CID>
13294447

> <PUBCHEM_CONFORMER_RMSD>
0.6

> <PUBCHEM_CONFORMER_DIVERSEORDER>
1
57
16
52
32
21
18
47
31
30
56
19
40
26
15
27
2
34
55
13
38
29
59
25
12
5
54
24
20
43
9
53
22
46
37
35
42
41
6
28
4
11
23
44
45
58
10
7
39
49
8
33
36
17
3
14
50
51
48

> <PUBCHEM_MMFF94_PARTIAL_CHARGES>
19
1 -0.57
10 0.51
11 -0.15
12 -0.15
13 -0.15
14 0.72
2 -0.65
21 0.15
22 0.15
23 0.15
24 0.15
25 0.15
26 0.5
3 -0.57
5 0.14
6 0.06
7 -0.14
8 -0.15
9 -0.15

> <PUBCHEM_EFFECTIVE_ROTOR_COUNT>
5

> <PUBCHEM_PHARMACOPHORE_FEATURES>
5
1 1 acceptor
1 2 acceptor
1 3 acceptor
3 2 3 14 anion
6 7 8 9 11 12 13 rings

> <PUBCHEM_HEAVY_ATOM_COUNT>
14

> <PUBCHEM_ATOM_DEF_STEREO_COUNT>
0

> <PUBCHEM_ATOM_UDEF_STEREO_COUNT>
0

> <PUBCHEM_BOND_DEF_STEREO_COUNT>
0

> <PUBCHEM_BOND_UDEF_STEREO_COUNT>
0

> <PUBCHEM_ISOTOPIC_ATOM_COUNT>
0

> <PUBCHEM_COMPONENT_COUNT>
1

> <PUBCHEM_CACTVS_TAUTO_COUNT>
2

> <PUBCHEM_CONFORMER_ID>
00CADB6F00000001

> <PUBCHEM_MMFF94_ENERGY>
25.6408

> <PUBCHEM_FEATURE_SELFOVERLAP>
25.441

> <PUBCHEM_SHAPE_FINGERPRINT>
10354089 29 17240486914250637364
10498660 4 18130227034388786849
10912923 1 17822008731102867675
11287383 113 16988841721870808598
114248 4 17060621113691668254
11471102 20 15482672394789833418
12236239 1 18040714783981111738
12251169 10 16588024623831968298
13081056 2 17847059991198078632
13675066 3 13190343478218118987
14123238 8 18410571803534937583
15477762 27 14261362336540347180
17834072 33 17458346389607894027
18186145 218 16343981403517900422
19050596 39 17676488358376364819
200 152 16515678957652565599
20279233 1 17561086921066303694
20645477 56 17489298724403789802
20645477 70 15357969054121211114
212847 35 18412261727585418648
22289505 5 16486973956015163472
23048698 100 17167863058480748304
23402539 116 18261103089238500791
23402655 69 15195567914038870490
23557571 272 18059867120832512797
23559900 14 18343027653284784278
23590187 302 14549018780132884258
26918003 58 14562528492219503612
300161 21 18113330908429962495
3060560 45 15698000743441690180
3268164 11 18343574132223085933
4047638 21 17203326732714903746
42 15 14418132906966202098
4990 188 17131838659555839830
522135 26 14261635023628874206
5281201 14 16415488129561844632
5374978 207 16298385755820363468
542803 24 18113618988570515229

> <PUBCHEM_SHAPE_MULTIPOLES>
270.51
11.34
1.1
1.03
7.11
0.06
0
2
-0.58
0.52
-0.01
-1.18
0.02
-0.78

> <PUBCHEM_SHAPE_SELFOVERLAP>
553.126

> <PUBCHEM_SHAPE_VOLUME>
155.1

> <PUBCHEM_COORDINATE_TYPE>
2
5
10

$$$$
