5892
  -OEChem-06122613513D

 71 75  0     1  0  0  0  0  0999 V2000
    4.1022    1.3461   -1.6570 P   0  0  1  0  0  0  0  0  0  0  0  0
    4.3117   -1.6039   -1.5256 P   0  0  1  0  0  0  0  0  0  0  0  0
   -0.7288    2.7430   -1.8928 O   0  0  0  0  0  0  0  0  0  0  0  0
    1.0909   -3.1742    0.9241 O   0  0  0  0  0  0  0  0  0  0  0  0
    0.0153    4.3536    0.5872 O   0  0  0  0  0  0  0  0  0  0  0  0
   -1.3658    2.2485    1.6100 O   0  0  0  0  0  0  0  0  0  0  0  0
   -1.1896   -4.4845   -0.6107 O   0  0  0  0  0  0  0  0  0  0  0  0
   -2.3819   -2.3331    0.5436 O   0  0  0  0  0  0  0  0  0  0  0  0
    2.8391    2.2929   -1.3008 O   0  0  0  0  0  0  0  0  0  0  0  0
    3.1618   -2.5711   -0.8793 O   0  0  0  0  0  0  0  0  0  0  0  0
    3.6062   -0.1496   -1.2923 O   0  0  0  0  0  0  0  0  0  0  0  0
    4.1518    1.3345   -3.2741 O   0  0  0  0  0  0  0  0  0  0  0  0
    5.3926    1.7469   -1.0027 O   0  0  0  0  0  0  0  0  0  0  0  0
    5.5621   -1.6726   -0.6758 O   0  5  0  0  0  0  0  0  0  0  0  0
    4.3758   -1.8745   -3.0132 O   0  0  0  0  0  0  0  0  0  0  0  0
    2.5108    2.1281    3.8276 O   0  0  0  0  0  0  0  0  0  0  0  0
   -2.4582    1.2675   -1.2127 N   0  0  0  0  0  0  0  0  0  0  0  0
    0.0055   -1.6198    2.4410 N   0  3  0  0  0  0  0  0  0  0  0  0
   -3.0956   -0.6018   -2.2468 N   0  0  0  0  0  0  0  0  0  0  0  0
   -4.4842    1.7678    0.0305 N   0  0  0  0  0  0  0  0  0  0  0  0
   -6.2135    0.0961   -0.3832 N   0  0  0  0  0  0  0  0  0  0  0  0
   -5.8733   -1.7703   -1.8421 N   0  0  0  0  0  0  0  0  0  0  0  0
    3.1769    1.0049    1.9425 N   0  0  0  0  0  0  0  0  0  0  0  0
    0.4305    3.0553    0.1628 C   0  0  1  0  0  0  0  0  0  0  0  0
   -0.6997    2.0680    0.3771 C   0  0  2  0  0  0  0  0  0  0  0  0
    0.5768    3.0576   -1.3557 C   0  0  1  0  0  0  0  0  0  0  0  0
   -1.6026    2.3802   -0.8066 C   0  0  1  0  0  0  0  0  0  0  0  0
   -0.5469   -3.2240   -0.8013 C   0  0  1  0  0  0  0  0  0  0  0  0
   -0.9964   -2.2598    0.2782 C   0  0  2  0  0  0  0  0  0  0  0  0
    0.9401   -3.3797   -0.4993 C   0  0  1  0  0  0  0  0  0  0  0  0
   -0.1662   -2.7226    1.4619 C   0  0  1  0  0  0  0  0  0  0  0  0
    1.5664    2.0156   -1.8582 C   0  0  0  0  0  0  0  0  0  0  0  0
    1.8036   -2.3584   -1.2265 C   0  0  0  0  0  0  0  0  0  0  0  0
   -3.7428    1.0331   -0.8121 C   0  0  0  0  0  0  0  0  0  0  0  0
   -2.1146    0.2593   -2.0739 C   0  0  0  0  0  0  0  0  0  0  0  0
    1.0290   -0.7693    2.2840 C   0  0  0  0  0  0  0  0  0  0  0  0
   -0.8695   -1.5106    3.4501 C   0  0  0  0  0  0  0  0  0  0  0  0
   -4.1194   -0.1304   -1.4640 C   0  0  0  0  0  0  0  0  0  0  0  0
    1.2130    0.2711    3.1835 C   0  0  0  0  0  0  0  0  0  0  0  0
   -0.7347   -0.4895    4.3800 C   0  0  0  0  0  0  0  0  0  0  0  0
   -5.4080   -0.5967   -1.2242 C   0  0  0  0  0  0  0  0  0  0  0  0
    0.3193    0.4086    4.2413 C   0  0  0  0  0  0  0  0  0  0  0  0
   -5.7089    1.2187    0.1835 C   0  0  0  0  0  0  0  0  0  0  0  0
    2.3194    1.1989    3.0222 C   0  0  0  0  0  0  0  0  0  0  0  0
    1.3351    2.8053    0.7195 H   0  0  0  0  0  0  0  0  0  0  0  0
   -0.3132    1.0453    0.3251 H   0  0  0  0  0  0  0  0  0  0  0  0
    0.8652    4.0487   -1.7242 H   0  0  0  0  0  0  0  0  0  0  0  0
   -2.2630    3.2334   -0.6083 H   0  0  0  0  0  0  0  0  0  0  0  0
   -0.7755   -2.8809   -1.8142 H   0  0  0  0  0  0  0  0  0  0  0  0
   -0.7416   -1.2332    0.0011 H   0  0  0  0  0  0  0  0  0  0  0  0
    1.3043   -4.3914   -0.7101 H   0  0  0  0  0  0  0  0  0  0  0  0
   -0.6227   -3.5667    1.9938 H   0  0  0  0  0  0  0  0  0  0  0  0
    1.6218    2.0498   -2.9515 H   0  0  0  0  0  0  0  0  0  0  0  0
    1.2502    1.0050   -1.5814 H   0  0  0  0  0  0  0  0  0  0  0  0
    1.6917   -2.4617   -2.3105 H   0  0  0  0  0  0  0  0  0  0  0  0
    1.5178   -1.3442   -0.9360 H   0  0  0  0  0  0  0  0  0  0  0  0
    0.7459    4.9675    0.3994 H   0  0  0  0  0  0  0  0  0  0  0  0
   -2.0937    1.6050    1.6474 H   0  0  0  0  0  0  0  0  0  0  0  0
   -0.8452   -5.0907   -1.2887 H   0  0  0  0  0  0  0  0  0  0  0  0
   -2.8462   -2.2707   -0.3077 H   0  0  0  0  0  0  0  0  0  0  0  0
   -1.1405    0.1943   -2.5394 H   0  0  0  0  0  0  0  0  0  0  0  0
    1.6554   -0.9475    1.4260 H   0  0  0  0  0  0  0  0  0  0  0  0
   -1.6708   -2.2376    3.5011 H   0  0  0  0  0  0  0  0  0  0  0  0
   -1.4393   -0.3923    5.1990 H   0  0  0  0  0  0  0  0  0  0  0  0
    0.4235    1.2089    4.9689 H   0  0  0  0  0  0  0  0  0  0  0  0
   -6.3807    1.7476    0.8510 H   0  0  0  0  0  0  0  0  0  0  0  0
    4.9202    0.9204   -3.7216 H   0  0  0  0  0  0  0  0  0  0  0  0
   -6.8134   -2.0893   -1.6512 H   0  0  0  0  0  0  0  0  0  0  0  0
   -5.2736   -2.2899   -2.4685 H   0  0  0  0  0  0  0  0  0  0  0  0
    3.9608    1.6359    1.8088 H   0  0  0  0  0  0  0  0  0  0  0  0
    3.0932    0.2764    1.2448 H   0  0  0  0  0  0  0  0  0  0  0  0
  1  9  1  0  0  0  0
  1 11  1  0  0  0  0
  1 12  1  0  0  0  0
  1 13  2  0  0  0  0
  2 10  1  0  0  0  0
  2 11  1  0  0  0  0
  2 14  1  0  0  0  0
  2 15  2  0  0  0  0
  3 26  1  0  0  0  0
  3 27  1  0  0  0  0
  4 30  1  0  0  0  0
  4 31  1  0  0  0  0
  5 24  1  0  0  0  0
  5 57  1  0  0  0  0
  6 25  1  0  0  0  0
  6 58  1  0  0  0  0
  7 28  1  0  0  0  0
  7 59  1  0  0  0  0
  8 29  1  0  0  0  0
  8 60  1  0  0  0  0
  9 32  1  0  0  0  0
 10 33  1  0  0  0  0
 12 67  1  0  0  0  0
 16 44  2  0  0  0  0
 17 27  1  0  0  0  0
 17 34  1  0  0  0  0
 17 35  1  0  0  0  0
 18 31  1  0  0  0  0
 18 36  1  0  0  0  0
 18 37  2  0  0  0  0
 19 35  2  0  0  0  0
 19 38  1  0  0  0  0
 20 34  2  0  0  0  0
 20 43  1  0  0  0  0
 21 41  1  0  0  0  0
 21 43  2  0  0  0  0
 22 41  1  0  0  0  0
 22 68  1  0  0  0  0
 22 69  1  0  0  0  0
 23 44  1  0  0  0  0
 23 70  1  0  0  0  0
 23 71  1  0  0  0  0
 24 25  1  0  0  0  0
 24 26  1  0  0  0  0
 24 45  1  0  0  0  0
 25 27  1  0  0  0  0
 25 46  1  0  0  0  0
 26 32  1  0  0  0  0
 26 47  1  0  0  0  0
 27 48  1  0  0  0  0
 28 29  1  0  0  0  0
 28 30  1  0  0  0  0
 28 49  1  0  0  0  0
 29 31  1  0  0  0  0
 29 50  1  0  0  0  0
 30 33  1  0  0  0  0
 30 51  1  0  0  0  0
 31 52  1  0  0  0  0
 32 53  1  0  0  0  0
 32 54  1  0  0  0  0
 33 55  1  0  0  0  0
 33 56  1  0  0  0  0
 34 38  1  0  0  0  0
 35 61  1  0  0  0  0
 36 39  2  0  0  0  0
 36 62  1  0  0  0  0
 37 40  1  0  0  0  0
 37 63  1  0  0  0  0
 38 41  2  0  0  0  0
 39 42  1  0  0  0  0
 39 44  1  0  0  0  0
 40 42  2  0  0  0  0
 40 64  1  0  0  0  0
 42 65  1  0  0  0  0
 43 66  1  0  0  0  0
M  CHG  2  14  -1  18   1
M  END
> <PUBCHEM_COMPOUND_CID>
5892

> <PUBCHEM_CONFORMER_RMSD>
2

> <PUBCHEM_CONFORMER_DIVERSEORDER>
1
109
96
47
94
37
92
9
66
65
2
122
87
101
112
22
8
72
21
99
32
52
124
71
3
88
48
30
125
24
98
55
51
5
119
10
114
58
77
86
89
73
61
29
4
75
79
113
11
34
82
117
59
36
95
17
110
46
14
31
121
27
6
57
45
102
13
38
111
118
104
60
120
68
19
70
100
105
62
40
85
33
12
39
7
126
18
69
67
76
91
90
83
43
115
64
81
44
78
108
16
41
56
54
74
97
93
84
25
123
50
106
107
103
49
20
26
42
116
63
28
53
15
80
23
35

> <PUBCHEM_MMFF94_PARTIAL_CHARGES>
59
1 1.51
10 -0.55
11 -0.54
12 -0.77
13 -0.7
14 -0.95
15 -0.95
16 -0.57
17 0.05
18 -0.21
19 -0.57
2 1.44
20 -0.57
21 -0.62
22 -0.9
23 -0.8
24 0.28
25 0.28
26 0.28
27 0.54
28 0.28
29 0.28
3 -0.56
30 0.28
31 0.77
32 0.28
33 0.28
34 0.11
35 0.04
36 0.21
37 0.21
38 0.23
39 0.09
4 -0.56
40 -0.15
41 0.41
42 -0.15
43 0.47
44 0.54
5 -0.68
57 0.4
58 0.4
59 0.4
6 -0.68
60 0.4
61 0.15
62 0.15
63 0.15
64 0.15
65 0.15
66 0.15
67 0.5
68 0.4
69 0.4
7 -0.68
70 0.37
71 0.37
8 -0.68
9 -0.55

> <PUBCHEM_EFFECTIVE_ROTOR_COUNT>
13

> <PUBCHEM_PHARMACOPHORE_FEATURES>
26
1 12 acceptor
1 13 acceptor
1 14 acceptor
1 15 acceptor
1 16 acceptor
1 22 cation
1 22 donor
1 23 donor
1 3 acceptor
1 4 acceptor
1 5 acceptor
1 5 donor
1 6 acceptor
1 6 donor
1 7 acceptor
1 7 donor
1 8 acceptor
1 8 donor
3 17 19 35 cation
3 17 20 34 cation
3 20 21 43 cation
5 17 19 34 35 38 rings
5 3 24 25 26 27 rings
5 4 28 29 30 31 rings
6 18 36 37 39 40 42 rings
6 20 21 34 38 41 43 rings

> <PUBCHEM_HEAVY_ATOM_COUNT>
44

> <PUBCHEM_ATOM_DEF_STEREO_COUNT>
8

> <PUBCHEM_ATOM_UDEF_STEREO_COUNT>
0

> <PUBCHEM_BOND_DEF_STEREO_COUNT>
0

> <PUBCHEM_BOND_UDEF_STEREO_COUNT>
0

> <PUBCHEM_ISOTOPIC_ATOM_COUNT>
0

> <PUBCHEM_COMPONENT_COUNT>
1

> <PUBCHEM_CACTVS_TAUTO_COUNT>
6

> <PUBCHEM_CONFORMER_ID>
0000170400000001

> <PUBCHEM_MMFF94_ENERGY>
86.2837

> <PUBCHEM_FEATURE_SELFOVERLAP>
132.619

> <PUBCHEM_SHAPE_FINGERPRINT>
10816530 23 17836923769564310808
11513181 2 17558238151027068591
11578080 2 17557422386138980096
11607047 403 16337472484024103231
12156800 1 17977925093612513544
13383668 262 14329990704030090309
13642711 20 17604450508487752563
15406563 42 17700395151843476360
161222 10 18049128297968908093
20764821 26 18263668245608084510
21133410 90 17703795859787646042
27425 322 16661215891203503940
35225 105 15939551331745024978
4918855 1 17845384245599650305
5081480 168 15338537350758603291
6287921 2 17914301724776105835
66674814 147 18041852718286176060
6669772 16 17530965804534391448

> <PUBCHEM_SHAPE_MULTIPOLES>
796.16
9.71
4.78
4.4
6.18
0.53
5.4
-1.47
-8.24
-1.16
-1.05
-2.96
0.88
0.11

> <PUBCHEM_SHAPE_SELFOVERLAP>
1688.801

> <PUBCHEM_SHAPE_VOLUME>
449.2

> <PUBCHEM_COORDINATE_TYPE>
2
5
10

$$$$
5893
  -OEChem-06122613513D

 72 76  0     1  0  0  0  0  0999 V2000
    3.9720   -2.2332    0.6723 P   0  0  1  0  0  0  0  0  0  0  0  0
    3.9365    0.0802    2.4901 P   0  0  2  0  0  0  0  0  0  0  0  0
   -0.8734   -3.4000   -0.0447 O   0  0  0  0  0  0  0  0  0  0  0  0
    1.1724    3.1315    1.1767 O   0  0  0  0  0  0  0  0  0  0  0  0
   -0.0595   -3.3585   -2.9829 O   0  0  0  0  0  0  0  0  0  0  0  0
   -1.3874   -1.0072   -2.6774 O   0  0  0  0  0  0  0  0  0  0  0  0
   -1.3477    3.4017    2.8646 O   0  0  0  0  0  0  0  0  0  0  0  0
   -2.3038    2.5702    0.4611 O   0  0  0  0  0  0  0  0  0  0  0  0
    2.7195   -2.7849   -0.1913 O   0  0  0  0  0  0  0  0  0  0  0  0
    2.9233    1.3407    2.4530 O   0  0  0  0  0  0  0  0  0  0  0  0
    3.4967   -0.7784    1.1931 O   0  0  0  0  0  0  0  0  0  0  0  0
    3.9602   -3.1308    2.0183 O   0  0  0  0  0  0  0  0  0  0  0  0
    3.3949   -0.8181    3.7215 O   0  0  0  0  0  0  0  0  0  0  0  0
    5.2844   -2.2275   -0.0566 O   0  0  0  0  0  0  0  0  0  0  0  0
    5.3972    0.4202    2.5479 O   0  0  0  0  0  0  0  0  0  0  0  0
    3.1236    0.7070   -4.1967 O   0  0  0  0  0  0  0  0  0  0  0  0
   -2.5662   -1.7528    0.1823 N   0  0  0  0  0  0  0  0  0  0  0  0
    0.3738    2.9789   -1.1111 N   0  3  0  0  0  0  0  0  0  0  0  0
   -3.2225   -0.7712    2.0732 N   0  0  0  0  0  0  0  0  0  0  0  0
   -4.5533   -1.4157   -1.1737 N   0  0  0  0  0  0  0  0  0  0  0  0
   -6.2813   -0.2207    0.0679 N   0  0  0  0  0  0  0  0  0  0  0  0
   -5.9750    0.4947    2.3310 N   0  0  0  0  0  0  0  0  0  0  0  0
    3.4537    0.3348   -1.9582 N   0  0  0  0  0  0  0  0  0  0  0  0
    0.3521   -2.5340   -1.8927 C   0  0  1  0  0  0  0  0  0  0  0  0
   -0.7618   -1.5678   -1.5411 C   0  0  2  0  0  0  0  0  0  0  0  0
    0.4469   -3.3924   -0.6352 C   0  0  1  0  0  0  0  0  0  0  0  0
   -1.7070   -2.4672   -0.7590 C   0  0  1  0  0  0  0  0  0  0  0  0
   -0.7287    2.2456    2.3004 C   0  0  1  0  0  0  0  0  0  0  0  0
   -0.9806    2.2166    0.8061 C   0  0  2  0  0  0  0  0  0  0  0  0
    0.7855    2.4146    2.3715 C   0  0  1  0  0  0  0  0  0  0  0  0
    0.0278    3.2369    0.3096 C   0  0  1  0  0  0  0  0  0  0  0  0
    1.4277   -2.8387    0.3888 C   0  0  0  0  0  0  0  0  0  0  0  0
    1.5304    1.0872    2.3979 C   0  0  0  0  0  0  0  0  0  0  0  0
   -3.8346   -1.3006   -0.0468 C   0  0  0  0  0  0  0  0  0  0  0  0
   -2.2435   -1.4116    1.4690 C   0  0  0  0  0  0  0  0  0  0  0  0
    1.3684    2.1254   -1.3896 C   0  0  0  0  0  0  0  0  0  0  0  0
   -0.3207    3.6082   -2.0690 C   0  0  0  0  0  0  0  0  0  0  0  0
   -4.2231   -0.6948    1.1372 C   0  0  0  0  0  0  0  0  0  0  0  0
    1.7125    1.8649   -2.7084 C   0  0  0  0  0  0  0  0  0  0  0  0
   -0.0203    3.3864   -3.4054 C   0  0  0  0  0  0  0  0  0  0  0  0
    1.0080    2.5044   -3.7239 C   0  0  0  0  0  0  0  0  0  0  0  0
   -5.4990   -0.1409    1.1712 C   0  0  0  0  0  0  0  0  0  0  0  0
   -5.7674   -0.8439   -1.0199 C   0  0  0  0  0  0  0  0  0  0  0  0
    2.7893    0.9409   -3.0212 C   0  0  0  0  0  0  0  0  0  0  0  0
    1.2762   -2.0315   -2.1907 H   0  0  0  0  0  0  0  0  0  0  0  0
   -0.3674   -0.7579   -0.9169 H   0  0  0  0  0  0  0  0  0  0  0  0
    0.7146   -4.4265   -0.8809 H   0  0  0  0  0  0  0  0  0  0  0  0
   -2.3674   -3.0443   -1.4178 H   0  0  0  0  0  0  0  0  0  0  0  0
   -1.1170    1.3686    2.8254 H   0  0  0  0  0  0  0  0  0  0  0  0
   -0.7649    1.2220    0.4019 H   0  0  0  0  0  0  0  0  0  0  0  0
    1.0964    3.0322    3.2217 H   0  0  0  0  0  0  0  0  0  0  0  0
   -0.3456    4.2666    0.3754 H   0  0  0  0  0  0  0  0  0  0  0  0
    1.4440   -3.4824    1.2749 H   0  0  0  0  0  0  0  0  0  0  0  0
    1.1281   -1.8400    0.7220 H   0  0  0  0  0  0  0  0  0  0  0  0
    1.2250    0.5158    3.2791 H   0  0  0  0  0  0  0  0  0  0  0  0
    1.3145    0.5006    1.5007 H   0  0  0  0  0  0  0  0  0  0  0  0
    0.6598   -3.9895   -3.1568 H   0  0  0  0  0  0  0  0  0  0  0  0
   -2.1154   -0.4442   -2.3640 H   0  0  0  0  0  0  0  0  0  0  0  0
   -1.1282    3.4147    3.8119 H   0  0  0  0  0  0  0  0  0  0  0  0
   -2.8990    1.9519    0.9179 H   0  0  0  0  0  0  0  0  0  0  0  0
   -1.2851   -1.6443    1.9129 H   0  0  0  0  0  0  0  0  0  0  0  0
    1.8417    1.6677   -0.5371 H   0  0  0  0  0  0  0  0  0  0  0  0
   -1.1120    4.2791   -1.7574 H   0  0  0  0  0  0  0  0  0  0  0  0
   -0.5781    3.8903   -4.1874 H   0  0  0  0  0  0  0  0  0  0  0  0
    1.2422    2.3304   -4.7706 H   0  0  0  0  0  0  0  0  0  0  0  0
   -6.4207   -0.8889   -1.8847 H   0  0  0  0  0  0  0  0  0  0  0  0
    4.7119   -3.0569    2.6441 H   0  0  0  0  0  0  0  0  0  0  0  0
    2.4862   -1.1854    3.6922 H   0  0  0  0  0  0  0  0  0  0  0  0
   -6.9059    0.8888    2.3313 H   0  0  0  0  0  0  0  0  0  0  0  0
   -5.3930    0.5554    3.1556 H   0  0  0  0  0  0  0  0  0  0  0  0
    4.2134   -0.3114   -2.1483 H   0  0  0  0  0  0  0  0  0  0  0  0
    3.2469    0.4714   -0.9768 H   0  0  0  0  0  0  0  0  0  0  0  0
  1  9  1  0  0  0  0
  1 11  1  0  0  0  0
  1 12  1  0  0  0  0
  1 14  2  0  0  0  0
  2 10  1  0  0  0  0
  2 11  1  0  0  0  0
  2 13  1  0  0  0  0
  2 15  2  0  0  0  0
  3 26  1  0  0  0  0
  3 27  1  0  0  0  0
  4 30  1  0  0  0  0
  4 31  1  0  0  0  0
  5 24  1  0  0  0  0
  5 57  1  0  0  0  0
  6 25  1  0  0  0  0
  6 58  1  0  0  0  0
  7 28  1  0  0  0  0
  7 59  1  0  0  0  0
  8 29  1  0  0  0  0
  8 60  1  0  0  0  0
  9 32  1  0  0  0  0
 10 33  1  0  0  0  0
 12 67  1  0  0  0  0
 13 68  1  0  0  0  0
 16 44  2  0  0  0  0
 17 27  1  0  0  0  0
 17 34  1  0  0  0  0
 17 35  1  0  0  0  0
 18 31  1  0  0  0  0
 18 36  1  0  0  0  0
 18 37  2  0  0  0  0
 19 35  2  0  0  0  0
 19 38  1  0  0  0  0
 20 34  2  0  0  0  0
 20 43  1  0  0  0  0
 21 42  1  0  0  0  0
 21 43  2  0  0  0  0
 22 42  1  0  0  0  0
 22 69  1  0  0  0  0
 22 70  1  0  0  0  0
 23 44  1  0  0  0  0
 23 71  1  0  0  0  0
 23 72  1  0  0  0  0
 24 25  1  0  0  0  0
 24 26  1  0  0  0  0
 24 45  1  0  0  0  0
 25 27  1  0  0  0  0
 25 46  1  0  0  0  0
 26 32  1  0  0  0  0
 26 47  1  0  0  0  0
 27 48  1  0  0  0  0
 28 29  1  0  0  0  0
 28 30  1  0  0  0  0
 28 49  1  0  0  0  0
 29 31  1  0  0  0  0
 29 50  1  0  0  0  0
 30 33  1  0  0  0  0
 30 51  1  0  0  0  0
 31 52  1  0  0  0  0
 32 53  1  0  0  0  0
 32 54  1  0  0  0  0
 33 55  1  0  0  0  0
 33 56  1  0  0  0  0
 34 38  1  0  0  0  0
 35 61  1  0  0  0  0
 36 39  2  0  0  0  0
 36 62  1  0  0  0  0
 37 40  1  0  0  0  0
 37 63  1  0  0  0  0
 38 42  2  0  0  0  0
 39 41  1  0  0  0  0
 39 44  1  0  0  0  0
 40 41  2  0  0  0  0
 40 64  1  0  0  0  0
 41 65  1  0  0  0  0
 43 66  1  0  0  0  0
M  CHG  1  18   1
M  END
> <PUBCHEM_COMPOUND_CID>
5893

> <PUBCHEM_CONFORMER_RMSD>
2

> <PUBCHEM_CONFORMER_DIVERSEORDER>
1
83
115
2
116
80
5
114
93
17
82
105
3
90
14
84
47
7
39
73
71
107
4
41
49
12
94
36
87
58
95
44
63
6
69
109
112
61
56
81
10
113
43
67
13
40
86
99
62
35
19
89
51
108
75
101
111
28
38
70
55
33
68
11
74
9
104
34
45
98
92
60
53
76
96
106
103
22
30
54
88
23
59
77
72
18
91
46
15
78
27
110
26
8
79
102
66
42
37
29
21
52
64
57
48
100
16
65
85
25
50
97
32
24
20
31

> <PUBCHEM_MMFF94_PARTIAL_CHARGES>
60
1 1.51
10 -0.55
11 -0.54
12 -0.77
13 -0.77
14 -0.7
15 -0.7
16 -0.57
17 0.05
18 -0.21
19 -0.57
2 1.51
20 -0.57
21 -0.62
22 -0.9
23 -0.8
24 0.28
25 0.28
26 0.28
27 0.54
28 0.28
29 0.28
3 -0.56
30 0.28
31 0.77
32 0.28
33 0.28
34 0.11
35 0.04
36 0.21
37 0.21
38 0.23
39 0.09
4 -0.56
40 -0.15
41 -0.15
42 0.41
43 0.47
44 0.54
5 -0.68
57 0.4
58 0.4
59 0.4
6 -0.68
60 0.4
61 0.15
62 0.15
63 0.15
64 0.15
65 0.15
66 0.15
67 0.5
68 0.5
69 0.4
7 -0.68
70 0.4
71 0.37
72 0.37
8 -0.68
9 -0.55

> <PUBCHEM_EFFECTIVE_ROTOR_COUNT>
13

> <PUBCHEM_PHARMACOPHORE_FEATURES>
26
1 12 acceptor
1 13 acceptor
1 14 acceptor
1 15 acceptor
1 16 acceptor
1 22 cation
1 22 donor
1 23 donor
1 3 acceptor
1 4 acceptor
1 5 acceptor
1 5 donor
1 6 acceptor
1 6 donor
1 7 acceptor
1 7 donor
1 8 acceptor
1 8 donor
3 17 19 35 cation
3 17 20 34 cation
3 20 21 43 cation
5 17 19 34 35 38 rings
5 3 24 25 26 27 rings
5 4 28 29 30 31 rings
6 18 36 37 39 40 41 rings
6 20 21 34 38 42 43 rings

> <PUBCHEM_HEAVY_ATOM_COUNT>
44

> <PUBCHEM_ATOM_DEF_STEREO_COUNT>
8

> <PUBCHEM_ATOM_UDEF_STEREO_COUNT>
0

> <PUBCHEM_BOND_DEF_STEREO_COUNT>
0

> <PUBCHEM_BOND_UDEF_STEREO_COUNT>
0

> <PUBCHEM_ISOTOPIC_ATOM_COUNT>
0

> <PUBCHEM_COMPONENT_COUNT>
1

> <PUBCHEM_CACTVS_TAUTO_COUNT>
6

> <PUBCHEM_CONFORMER_ID>
0000170500000001

> <PUBCHEM_MMFF94_ENERGY>
74.1551

> <PUBCHEM_FEATURE_SELFOVERLAP>
132.62

> <PUBCHEM_SHAPE_FINGERPRINT>
11513181 2 17060339647205074894
12156800 1 17700441107840101244
12422481 6 18340762633830540521
150020 26 18191014815131147619
20764821 26 17770745015318221466
25265897 201 16915115146570774406
27425 322 16522750127864739285
35225 105 18126268758775014708
469060 322 17677609753337313154
5080951 261 17614791407105731152
5081480 168 17532630490576539981
513532 50 17131841992271035287

> <PUBCHEM_SHAPE_MULTIPOLES>
796.16
9.68
5.24
4.49
9.64
1.76
0.44
-5.95
-4.4
-2.81
2.38
-3.36
2.46
-2.34

> <PUBCHEM_SHAPE_SELFOVERLAP>
1686.883

> <PUBCHEM_SHAPE_VOLUME>
449.3

> <PUBCHEM_COORDINATE_TYPE>
2
5
10

$$$$
15938971
  -OEChem-06122613513D

 70 74  0     1  0  0  0  0  0999 V2000
   -3.0577   -2.7234    1.3757 P   0  0  1  0  0  0  0  0  0  0  0  0
   -4.6253   -0.5204    0.1699 P   0  0  2  0  0  0  0  0  0  0  0  0
    1.3462   -3.1203    0.9761 O   0  0  0  0  0  0  0  0  0  0  0  0
   -1.7321    3.5437   -0.5560 O   0  0  0  0  0  0  0  0  0  0  0  0
    3.7859   -0.6768    1.9753 O   0  0  0  0  0  0  0  0  0  0  0  0
    2.6093   -2.4472    3.6685 O   0  0  0  0  0  0  0  0  0  0  0  0
   -2.0227    2.7891   -3.4918 O   0  0  0  0  0  0  0  0  0  0  0  0
    0.4873    1.9436   -2.8856 O   0  0  0  0  0  0  0  0  0  0  0  0
   -1.4386   -2.8955    1.2149 O   0  0  0  0  0  0  0  0  0  0  0  0
   -3.9813    0.6763   -0.7399 O   0  0  0  0  0  0  0  0  0  0  0  0
   -3.2631   -1.3601    0.4993 O   0  0  0  0  0  0  0  0  0  0  0  0
   -3.7301   -3.8648    0.6445 O   0  5  0  0  0  0  0  0  0  0  0  0
   -3.3916   -2.4271    2.8216 O   0  0  0  0  0  0  0  0  0  0  0  0
   -5.5042   -1.3706   -0.7213 O   0  5  0  0  0  0  0  0  0  0  0  0
   -5.1629    0.0600    1.4599 O   0  0  0  0  0  0  0  0  0  0  0  0
    1.9293    2.4731    4.3439 O   0  0  0  0  0  0  0  0  0  0  0  0
    2.7379   -2.1155   -0.6621 N   0  0  0  0  0  0  0  0  0  0  0  0
    0.6478    3.3752   -0.1046 N   0  3  0  0  0  0  0  0  0  0  0  0
    3.7529   -1.7734   -2.6173 N   0  0  0  0  0  0  0  0  0  0  0  0
    0.4231   -1.8216   -1.3371 N   0  0  0  0  0  0  0  0  0  0  0  0
    0.2518   -1.3133   -3.7179 N   0  0  0  0  0  0  0  0  0  0  0  0
    2.1714   -1.1456   -5.1372 N   0  0  0  0  0  0  0  0  0  0  0  0
   -0.2230    1.9998    3.7093 N   0  0  0  0  0  0  0  0  0  0  0  0
    2.5021   -1.1626    1.6394 C   0  0  2  0  0  0  0  0  0  0  0  0
    1.7335   -1.6864    2.8364 C   0  0  1  0  0  0  0  0  0  0  0  0
    2.5767   -2.4025    0.7614 C   0  0  1  0  0  0  0  0  0  0  0  0
    0.7267   -2.6315    2.1882 C   0  0  1  0  0  0  0  0  0  0  0  0
   -1.8921    1.9678   -2.3315 C   0  0  1  0  0  0  0  0  0  0  0  0
   -0.4595    2.0129   -1.8395 C   0  0  2  0  0  0  0  0  0  0  0  0
   -2.6519    2.6188   -1.1802 C   0  0  1  0  0  0  0  0  0  0  0  0
   -0.4253    3.3549   -1.1306 C   0  0  1  0  0  0  0  0  0  0  0  0
   -0.5790   -1.9431    1.8161 C   0  0  0  0  0  0  0  0  0  0  0  0
   -3.1122    1.6168   -0.1307 C   0  0  0  0  0  0  0  0  0  0  0  0
    1.7446   -1.8615   -1.5644 C   0  0  0  0  0  0  0  0  0  0  0  0
    3.9254   -2.0507   -1.3418 C   0  0  0  0  0  0  0  0  0  0  0  0
    0.3709    2.9319    1.1293 C   0  0  0  0  0  0  0  0  0  0  0  0
    1.8588    3.8359   -0.4463 C   0  0  0  0  0  0  0  0  0  0  0  0
    2.3946   -1.6525   -2.7704 C   0  0  0  0  0  0  0  0  0  0  0  0
    1.3549    2.9385    2.1077 C   0  0  0  0  0  0  0  0  0  0  0  0
    2.8814    3.8662    0.4912 C   0  0  0  0  0  0  0  0  0  0  0  0
    2.6221    3.4116    1.7808 C   0  0  0  0  0  0  0  0  0  0  0  0
    1.5964   -1.3697   -3.8743 C   0  0  0  0  0  0  0  0  0  0  0  0
   -0.2440   -1.5394   -2.4774 C   0  0  0  0  0  0  0  0  0  0  0  0
    1.0652    2.4597    3.4486 C   0  0  0  0  0  0  0  0  0  0  0  0
    1.9353   -0.3593    1.1530 H   0  0  0  0  0  0  0  0  0  0  0  0
    1.2923   -0.8957    3.4497 H   0  0  0  0  0  0  0  0  0  0  0  0
    3.4075   -3.0606    1.0453 H   0  0  0  0  0  0  0  0  0  0  0  0
    0.5197   -3.5095    2.8105 H   0  0  0  0  0  0  0  0  0  0  0  0
   -2.2236    0.9623   -2.6026 H   0  0  0  0  0  0  0  0  0  0  0  0
   -0.2699    1.1946   -1.1359 H   0  0  0  0  0  0  0  0  0  0  0  0
   -3.5120    3.1909   -1.5467 H   0  0  0  0  0  0  0  0  0  0  0  0
   -0.2398    4.1906   -1.8170 H   0  0  0  0  0  0  0  0  0  0  0  0
   -0.4226   -1.1324    1.0988 H   0  0  0  0  0  0  0  0  0  0  0  0
   -1.0429   -1.5202    2.7126 H   0  0  0  0  0  0  0  0  0  0  0  0
   -2.2638    1.0921    0.3205 H   0  0  0  0  0  0  0  0  0  0  0  0
   -3.6371    2.1382    0.6770 H   0  0  0  0  0  0  0  0  0  0  0  0
    4.2242   -0.4092    1.1498 H   0  0  0  0  0  0  0  0  0  0  0  0
    2.0764   -2.8058    4.3986 H   0  0  0  0  0  0  0  0  0  0  0  0
   -2.9580    2.7694   -3.7573 H   0  0  0  0  0  0  0  0  0  0  0  0
    0.2772    1.1596   -3.4198 H   0  0  0  0  0  0  0  0  0  0  0  0
    4.8789   -2.2123   -0.8575 H   0  0  0  0  0  0  0  0  0  0  0  0
   -0.6326    2.5706    1.2799 H   0  0  0  0  0  0  0  0  0  0  0  0
    1.9992    4.1715   -1.4666 H   0  0  0  0  0  0  0  0  0  0  0  0
    3.8653    4.2357    0.2231 H   0  0  0  0  0  0  0  0  0  0  0  0
    3.4236    3.4341    2.5142 H   0  0  0  0  0  0  0  0  0  0  0  0
   -1.3238   -1.4880   -2.3878 H   0  0  0  0  0  0  0  0  0  0  0  0
    1.5704   -0.9413   -5.9239 H   0  0  0  0  0  0  0  0  0  0  0  0
    3.1745   -1.1870   -5.2564 H   0  0  0  0  0  0  0  0  0  0  0  0
   -0.4535    1.6648    4.6395 H   0  0  0  0  0  0  0  0  0  0  0  0
   -0.9820    1.9584    3.0412 H   0  0  0  0  0  0  0  0  0  0  0  0
  1  9  1  0  0  0  0
  1 11  1  0  0  0  0
  1 12  1  0  0  0  0
  1 13  2  0  0  0  0
  2 10  1  0  0  0  0
  2 11  1  0  0  0  0
  2 14  1  0  0  0  0
  2 15  2  0  0  0  0
  3 26  1  0  0  0  0
  3 27  1  0  0  0  0
  4 30  1  0  0  0  0
  4 31  1  0  0  0  0
  5 24  1  0  0  0  0
  5 57  1  0  0  0  0
  6 25  1  0  0  0  0
  6 58  1  0  0  0  0
  7 28  1  0  0  0  0
  7 59  1  0  0  0  0
  8 29  1  0  0  0  0
  8 60  1  0  0  0  0
  9 32  1  0  0  0  0
 10 33  1  0  0  0  0
 16 44  2  0  0  0  0
 17 26  1  0  0  0  0
 17 34  1  0  0  0  0
 17 35  1  0  0  0  0
 18 31  1  0  0  0  0
 18 36  1  0  0  0  0
 18 37  2  0  0  0  0
 19 35  2  0  0  0  0
 19 38  1  0  0  0  0
 20 34  2  0  0  0  0
 20 43  1  0  0  0  0
 21 42  1  0  0  0  0
 21 43  2  0  0  0  0
 22 42  1  0  0  0  0
 22 67  1  0  0  0  0
 22 68  1  0  0  0  0
 23 44  1  0  0  0  0
 23 69  1  0  0  0  0
 23 70  1  0  0  0  0
 24 25  1  0  0  0  0
 24 26  1  0  0  0  0
 24 45  1  0  0  0  0
 25 27  1  0  0  0  0
 25 46  1  0  0  0  0
 26 47  1  0  0  0  0
 27 32  1  0  0  0  0
 27 48  1  0  0  0  0
 28 29  1  0  0  0  0
 28 30  1  0  0  0  0
 28 49  1  0  0  0  0
 29 31  1  0  0  0  0
 29 50  1  0  0  0  0
 30 33  1  0  0  0  0
 30 51  1  0  0  0  0
 31 52  1  0  0  0  0
 32 53  1  0  0  0  0
 32 54  1  0  0  0  0
 33 55  1  0  0  0  0
 33 56  1  0  0  0  0
 34 38  1  0  0  0  0
 35 61  1  0  0  0  0
 36 39  2  0  0  0  0
 36 62  1  0  0  0  0
 37 40  1  0  0  0  0
 37 63  1  0  0  0  0
 38 42  2  0  0  0  0
 39 41  1  0  0  0  0
 39 44  1  0  0  0  0
 40 41  2  0  0  0  0
 40 64  1  0  0  0  0
 41 65  1  0  0  0  0
 43 66  1  0  0  0  0
M  CHG  3  12  -1  14  -1  18   1
M  END
> <PUBCHEM_COMPOUND_CID>
15938971

> <PUBCHEM_CONFORMER_RMSD>
1.8

> <PUBCHEM_CONFORMER_DIVERSEORDER>
1
186
27
192
46
14
47
202
180
4
214
9
101
215
33
73
29
171
97
200
145
72
3
207
81
115
184
6
197
89
164
134
60
151
166
74
87
95
66
196
113
218
199
143
39
185
48
22
211
131
156
10
204
161
205
210
120
125
189
188
175
213
2
219
147
11
83
179
62
32
177
42
139
94
138
150
19
7
77
167
183
67
41
176
79
162
24
80
102
158
105
84
152
25
116
208
12
43
57
157
209
108
23
172
136
92
165
5
98
193
174
216
61
149
34
173
21
96
28
59
52
212
40
195
119
30
99
36
122
91
13
220
76
110
49
35
58
111
88
154
128
191
112
104
64
132
182
50
146
148
217
155
55
140
118
56
129
194
90
198
114
38
71
144
169
187
100
16
45
70
163
107
133
54
63
85
18
178
142
31
201
126
37
135
53
124
75
15
168
203
206
103
123
170
141
68
8
160
69
44
190
93
121
153
86
117
106
159
78
109
20
17
130
181
26
137
127
65
51
82

> <PUBCHEM_MMFF94_PARTIAL_CHARGES>
58
1 1.44
10 -0.55
11 -0.54
12 -0.95
13 -0.95
14 -0.95
15 -0.95
16 -0.57
17 0.05
18 -0.21
19 -0.57
2 1.44
20 -0.57
21 -0.62
22 -0.9
23 -0.8
24 0.28
25 0.28
26 0.54
27 0.28
28 0.28
29 0.28
3 -0.56
30 0.28
31 0.77
32 0.28
33 0.28
34 0.11
35 0.04
36 0.21
37 0.21
38 0.23
39 0.09
4 -0.56
40 -0.15
41 -0.15
42 0.41
43 0.47
44 0.54
5 -0.68
57 0.4
58 0.4
59 0.4
6 -0.68
60 0.4
61 0.15
62 0.15
63 0.15
64 0.15
65 0.15
66 0.15
67 0.4
68 0.4
69 0.37
7 -0.68
70 0.37
8 -0.68
9 -0.55

> <PUBCHEM_EFFECTIVE_ROTOR_COUNT>
13

> <PUBCHEM_PHARMACOPHORE_FEATURES>
26
1 12 acceptor
1 13 acceptor
1 14 acceptor
1 15 acceptor
1 16 acceptor
1 22 cation
1 22 donor
1 23 donor
1 3 acceptor
1 4 acceptor
1 5 acceptor
1 5 donor
1 6 acceptor
1 6 donor
1 7 acceptor
1 7 donor
1 8 acceptor
1 8 donor
3 17 19 35 cation
3 17 20 34 cation
3 20 21 43 cation
5 17 19 34 35 38 rings
5 3 24 25 26 27 rings
5 4 28 29 30 31 rings
6 18 36 37 39 40 41 rings
6 20 21 34 38 42 43 rings

> <PUBCHEM_HEAVY_ATOM_COUNT>
44

> <PUBCHEM_ATOM_DEF_STEREO_COUNT>
8

> <PUBCHEM_ATOM_UDEF_STEREO_COUNT>
0

> <PUBCHEM_BOND_DEF_STEREO_COUNT>
0

> <PUBCHEM_BOND_UDEF_STEREO_COUNT>
0

> <PUBCHEM_ISOTOPIC_ATOM_COUNT>
0

> <PUBCHEM_COMPONENT_COUNT>
1

> <PUBCHEM_CACTVS_TAUTO_COUNT>
6

> <PUBCHEM_CONFORMER_ID>
00F3359B00000001

> <PUBCHEM_MMFF94_ENERGY>
100.2715

> <PUBCHEM_FEATURE_SELFOVERLAP>
132.618

> <PUBCHEM_SHAPE_FINGERPRINT>
10032420 55 16607103117547779664
12156800 1 14204727509968273919
14040221 178 11506461521148173110
14114207 22 8542197516653438886
14932702 115 10227879804150547587
17921350 177 15813157341540477661
20764821 26 12451368366253077215
3493558 16 11006773772769629387
35225 105 11325468454888333647

> <PUBCHEM_SHAPE_MULTIPOLES>
796.16
6.95
6.18
5.38
8.27
3.93
1.54
-3.39
-1.14
-2.27
-1.31
-3.3
-1.06
3.88

> <PUBCHEM_SHAPE_SELFOVERLAP>
1689.933

> <PUBCHEM_SHAPE_VOLUME>
448.2

> <PUBCHEM_COORDINATE_TYPE>
2
5
10

$$$$
10897651
  -OEChem-06122613513D

 71 75  0     1  0  0  0  0  0999 V2000
    3.6018   -2.8526    0.7020 P   0  0  1  0  0  0  0  0  0  0  0  0
    3.6262   -1.8579   -2.0861 P   0  0  1  0  0  0  0  0  0  0  0  0
   -0.3996   -0.5832   -3.0605 O   0  0  0  0  0  0  0  0  0  0  0  0
    1.5141    0.8585    3.3894 O   0  0  0  0  0  0  0  0  0  0  0  0
   -0.6694    2.3299   -3.9203 O   0  0  0  0  0  0  0  0  0  0  0  0
   -2.0912    2.2353   -1.6063 O   0  0  0  0  0  0  0  0  0  0  0  0
   -0.2106   -1.4016    4.4804 O   0  0  0  0  0  0  0  0  0  0  0  0
   -1.8717   -0.1496    2.7324 O   0  0  0  0  0  0  0  0  0  0  0  0
    2.3266   -1.1973   -2.8292 O   0  0  0  0  0  0  0  0  0  0  0  0
    2.7194   -2.2555    1.9199 O   0  0  0  0  0  0  0  0  0  0  0  0
    2.9683   -2.1832   -0.6271 O   0  0  0  0  0  0  0  0  0  0  0  0
    5.0332   -2.1117    0.8423 O   0  0  0  0  0  0  0  0  0  0  0  0
    3.6837   -4.3511    0.6613 O   0  0  0  0  0  0  0  0  0  0  0  0
    3.9759   -3.1684   -2.7576 O   0  5  0  0  0  0  0  0  0  0  0  0
    4.6722   -0.7783   -1.9124 O   0  0  0  0  0  0  0  0  0  0  0  0
    1.6329    5.0241   -1.2142 O   0  0  0  0  0  0  0  0  0  0  0  0
   -2.0998   -0.9423   -1.4448 N   0  0  0  0  0  0  0  0  0  0  0  0
   -0.0494    2.3597    2.2953 N   0  3  0  0  0  0  0  0  0  0  0  0
   -2.1754   -2.5802    0.0658 N   0  0  0  0  0  0  0  0  0  0  0  0
   -4.4597   -0.3799   -1.5681 N   0  0  0  0  0  0  0  0  0  0  0  0
   -5.7835   -1.7781   -0.0686 N   0  0  0  0  0  0  0  0  0  0  0  0
   -4.8020   -3.4656    1.3156 N   0  0  0  0  0  0  0  0  0  0  0  0
    2.8170    3.1614   -0.5921 N   0  0  0  0  0  0  0  0  0  0  0  0
   -0.0111    1.7502   -2.7939 C   0  0  1  0  0  0  0  0  0  0  0  0
   -1.0450    1.3016   -1.7800 C   0  0  2  0  0  0  0  0  0  0  0  0
    0.6212    0.4290   -3.2200 C   0  0  1  0  0  0  0  0  0  0  0  0
   -1.5391    0.0057   -2.4048 C   0  0  1  0  0  0  0  0  0  0  0  0
    0.3019   -1.1768    3.1671 C   0  0  1  0  0  0  0  0  0  0  0  0
   -0.4806   -0.0614    2.5037 C   0  0  2  0  0  0  0  0  0  0  0  0
    1.6974   -0.5719    3.2808 C   0  0  1  0  0  0  0  0  0  0  0  0
    0.1262    1.1656    3.1600 C   0  0  1  0  0  0  0  0  0  0  0  0
    1.8193    0.0414   -2.3646 C   0  0  0  0  0  0  0  0  0  0  0  0
    2.5678   -0.8539    2.0641 C   0  0  0  0  0  0  0  0  0  0  0  0
   -3.4147   -1.0795   -1.1012 C   0  0  0  0  0  0  0  0  0  0  0  0
   -1.3954   -1.8654   -0.7182 C   0  0  0  0  0  0  0  0  0  0  0  0
    0.8745    2.6229    1.3610 C   0  0  0  0  0  0  0  0  0  0  0  0
   -1.1267    3.1355    2.4771 C   0  0  0  0  0  0  0  0  0  0  0  0
   -3.4401   -2.0994   -0.1634 C   0  0  0  0  0  0  0  0  0  0  0  0
    0.7354    3.7316    0.5382 C   0  0  0  0  0  0  0  0  0  0  0  0
   -1.3178    4.2576    1.6835 C   0  0  0  0  0  0  0  0  0  0  0  0
   -0.3740    4.5549    0.7049 C   0  0  0  0  0  0  0  0  0  0  0  0
   -4.6832   -2.4435    0.3581 C   0  0  0  0  0  0  0  0  0  0  0  0
   -5.6061   -0.8021   -0.9916 C   0  0  0  0  0  0  0  0  0  0  0  0
    1.7312    4.0258   -0.4780 C   0  0  0  0  0  0  0  0  0  0  0  0
    0.6936    2.4880   -2.4139 H   0  0  0  0  0  0  0  0  0  0  0  0
   -0.5670    1.1176   -0.8119 H   0  0  0  0  0  0  0  0  0  0  0  0
    0.9032    0.4246   -4.2790 H   0  0  0  0  0  0  0  0  0  0  0  0
   -2.3096    0.1816   -3.1655 H   0  0  0  0  0  0  0  0  0  0  0  0
    0.2420   -2.1235    2.6232 H   0  0  0  0  0  0  0  0  0  0  0  0
   -0.2984   -0.0571    1.4238 H   0  0  0  0  0  0  0  0  0  0  0  0
    2.2068   -0.9185    4.1872 H   0  0  0  0  0  0  0  0  0  0  0  0
   -0.3291    1.3935    4.1319 H   0  0  0  0  0  0  0  0  0  0  0  0
    1.5333   -0.0734   -1.3146 H   0  0  0  0  0  0  0  0  0  0  0  0
    2.6018    0.8020   -2.4422 H   0  0  0  0  0  0  0  0  0  0  0  0
    2.1240   -0.4384    1.1540 H   0  0  0  0  0  0  0  0  0  0  0  0
    3.5488   -0.3832    2.1897 H   0  0  0  0  0  0  0  0  0  0  0  0
    0.0163    2.5596   -4.5705 H   0  0  0  0  0  0  0  0  0  0  0  0
   -2.7279    1.8499   -0.9808 H   0  0  0  0  0  0  0  0  0  0  0  0
    0.3360   -2.0936    4.8904 H   0  0  0  0  0  0  0  0  0  0  0  0
   -2.1680   -1.0119    2.3949 H   0  0  0  0  0  0  0  0  0  0  0  0
   -0.3214   -1.9710   -0.7908 H   0  0  0  0  0  0  0  0  0  0  0  0
    1.6865    1.9180    1.2977 H   0  0  0  0  0  0  0  0  0  0  0  0
   -1.8273    2.8488    3.2519 H   0  0  0  0  0  0  0  0  0  0  0  0
   -2.1879    4.8902    1.8223 H   0  0  0  0  0  0  0  0  0  0  0  0
   -0.5249    5.4328    0.0825 H   0  0  0  0  0  0  0  0  0  0  0  0
   -6.5081   -0.2906   -1.3101 H   0  0  0  0  0  0  0  0  0  0  0  0
    5.7793   -2.4119    0.2808 H   0  0  0  0  0  0  0  0  0  0  0  0
   -5.7161   -3.6967    1.6801 H   0  0  0  0  0  0  0  0  0  0  0  0
   -3.9821   -3.9625    1.6367 H   0  0  0  0  0  0  0  0  0  0  0  0
    3.5298    3.3465   -1.2909 H   0  0  0  0  0  0  0  0  0  0  0  0
    2.9726    2.3315   -0.0343 H   0  0  0  0  0  0  0  0  0  0  0  0
  1 10  1  0  0  0  0
  1 11  1  0  0  0  0
  1 12  1  0  0  0  0
  1 13  2  0  0  0  0
  2  9  1  0  0  0  0
  2 11  1  0  0  0  0
  2 14  1  0  0  0  0
  2 15  2  0  0  0  0
  3 26  1  0  0  0  0
  3 27  1  0  0  0  0
  4 30  1  0  0  0  0
  4 31  1  0  0  0  0
  5 24  1  0  0  0  0
  5 57  1  0  0  0  0
  6 25  1  0  0  0  0
  6 58  1  0  0  0  0
  7 28  1  0  0  0  0
  7 59  1  0  0  0  0
  8 29  1  0  0  0  0
  8 60  1  0  0  0  0
  9 32  1  0  0  0  0
 10 33  1  0  0  0  0
 12 67  1  0  0  0  0
 16 44  2  0  0  0  0
 17 27  1  0  0  0  0
 17 34  1  0  0  0  0
 17 35  1  0  0  0  0
 18 31  1  0  0  0  0
 18 36  1  0  0  0  0
 18 37  2  0  0  0  0
 19 35  2  0  0  0  0
 19 38  1  0  0  0  0
 20 34  2  0  0  0  0
 20 43  1  0  0  0  0
 21 42  1  0  0  0  0
 21 43  2  0  0  0  0
 22 42  1  0  0  0  0
 22 68  1  0  0  0  0
 22 69  1  0  0  0  0
 23 44  1  0  0  0  0
 23 70  1  0  0  0  0
 23 71  1  0  0  0  0
 24 25  1  0  0  0  0
 24 26  1  0  0  0  0
 24 45  1  0  0  0  0
 25 27  1  0  0  0  0
 25 46  1  0  0  0  0
 26 32  1  0  0  0  0
 26 47  1  0  0  0  0
 27 48  1  0  0  0  0
 28 29  1  0  0  0  0
 28 30  1  0  0  0  0
 28 49  1  0  0  0  0
 29 31  1  0  0  0  0
 29 50  1  0  0  0  0
 30 33  1  0  0  0  0
 30 51  1  0  0  0  0
 31 52  1  0  0  0  0
 32 53  1  0  0  0  0
 32 54  1  0  0  0  0
 33 55  1  0  0  0  0
 33 56  1  0  0  0  0
 34 38  1  0  0  0  0
 35 61  1  0  0  0  0
 36 39  2  0  0  0  0
 36 62  1  0  0  0  0
 37 40  1  0  0  0  0
 37 63  1  0  0  0  0
 38 42  2  0  0  0  0
 39 41  1  0  0  0  0
 39 44  1  0  0  0  0
 40 41  2  0  0  0  0
 40 64  1  0  0  0  0
 41 65  1  0  0  0  0
 43 66  1  0  0  0  0
M  CHG  2  14  -1  18   1
M  END
> <PUBCHEM_COMPOUND_CID>
10897651

> <PUBCHEM_CONFORMER_RMSD>
1.8

> <PUBCHEM_CONFORMER_DIVERSEORDER>
1
157
199
153
6
173
91
172
3
87
101
196
211
23
71
179
229
5
222
2
218
124
206
44
169
208
21
43
18
98
72
178
152
104
176
65
107
134
4
225
220
64
204
46
215
148
29
197
190
68
138
159
14
168
7
128
70
202
192
151
83
51
27
149
74
182
39
122
129
174
188
136
160
75
82
119
189
147
63
187
120
76
228
118
45
92
94
22
8
36
93
132
207
171
38
144
131
17
116
126
198
127
163
12
103
200
226
10
35
66
145
110
95
85
186
224
81
142
180
90
195
84
139
52
154
54
125
11
170
62
201
113
216
89
212
175
26
112
181
42
217
205
177
48
114
140
130
55
15
184
166
16
111
210
73
9
100
164
88
221
32
133
156
106
80
49
41
146
213
61
47
77
96
227
223
67
167
141
209
79
19
183
155
108
78
24
203
40
121
60
86
165
58
20
214
135
105
162
37
102
31
115
143
158
97
193
25
69
34
194
30
137
117
53
219
109
57
185
99
59
56
13
123
28
191
150
50
161
33

> <PUBCHEM_MMFF94_PARTIAL_CHARGES>
59
1 1.51
10 -0.55
11 -0.54
12 -0.77
13 -0.7
14 -0.95
15 -0.95
16 -0.57
17 0.05
18 -0.21
19 -0.57
2 1.44
20 -0.57
21 -0.62
22 -0.9
23 -0.8
24 0.28
25 0.28
26 0.28
27 0.54
28 0.28
29 0.28
3 -0.56
30 0.28
31 0.77
32 0.28
33 0.28
34 0.11
35 0.04
36 0.21
37 0.21
38 0.23
39 0.09
4 -0.56
40 -0.15
41 -0.15
42 0.41
43 0.47
44 0.54
5 -0.68
57 0.4
58 0.4
59 0.4
6 -0.68
60 0.4
61 0.15
62 0.15
63 0.15
64 0.15
65 0.15
66 0.15
67 0.5
68 0.4
69 0.4
7 -0.68
70 0.37
71 0.37
8 -0.68
9 -0.55

> <PUBCHEM_EFFECTIVE_ROTOR_COUNT>
13

> <PUBCHEM_PHARMACOPHORE_FEATURES>
26
1 12 acceptor
1 13 acceptor
1 14 acceptor
1 15 acceptor
1 16 acceptor
1 22 cation
1 22 donor
1 23 donor
1 3 acceptor
1 4 acceptor
1 5 acceptor
1 5 donor
1 6 acceptor
1 6 donor
1 7 acceptor
1 7 donor
1 8 acceptor
1 8 donor
3 17 19 35 cation
3 17 20 34 cation
3 20 21 43 cation
5 17 19 34 35 38 rings
5 3 24 25 26 27 rings
5 4 28 29 30 31 rings
6 18 36 37 39 40 41 rings
6 20 21 34 38 42 43 rings

> <PUBCHEM_HEAVY_ATOM_COUNT>
44

> <PUBCHEM_ATOM_DEF_STEREO_COUNT>
8

> <PUBCHEM_ATOM_UDEF_STEREO_COUNT>
0

> <PUBCHEM_BOND_DEF_STEREO_COUNT>
0

> <PUBCHEM_BOND_UDEF_STEREO_COUNT>
0

> <PUBCHEM_ISOTOPIC_ATOM_COUNT>
0

> <PUBCHEM_COMPONENT_COUNT>
1

> <PUBCHEM_CACTVS_TAUTO_COUNT>
6

> <PUBCHEM_CONFORMER_ID>
00A648F300000001

> <PUBCHEM_MMFF94_ENERGY>
86.6167

> <PUBCHEM_FEATURE_SELFOVERLAP>
132.619

> <PUBCHEM_SHAPE_FINGERPRINT>
11399939 17 17269454814826384575
12156800 1 17914908542939822145
12539773 59 17318169411748959284
13383668 262 17196007485799817951
14114207 22 16270491167187733370
18603816 31 17110445191733676578
3044373 193 18057020606484239735
35225 105 17480315469681401422
469060 322 18199486375945256090
6287921 2 17100274017574886489

> <PUBCHEM_SHAPE_MULTIPOLES>
796.16
7.94
6.09
4.94
6.31
5.93
-1.06
-11.08
1.45
-3.1
-0.5
-1.86
0.28
0.34

> <PUBCHEM_SHAPE_SELFOVERLAP>
1688.087

> <PUBCHEM_SHAPE_VOLUME>
449.1

> <PUBCHEM_COORDINATE_TYPE>
2
5
10

$$$$
