132981
  -OEChem-07012623443D

 44 45  0     0  0  0  0  0  0999 V2000
   -3.7707    1.9115    1.6484 F   0  0  0  0  0  0  0  0  0  0  0  0
   -5.3510    1.2044    0.3421 F   0  0  0  0  0  0  0  0  0  0  0  0
   -4.8298    0.0729    2.1245 F   0  0  0  0  0  0  0  0  0  0  0  0
   -0.0262    2.5526   -0.4552 O   0  0  0  0  0  0  0  0  0  0  0  0
    1.5178   -1.8108   -0.7234 O   0  0  0  0  0  0  0  0  0  0  0  0
    7.9964   -1.6458    1.5365 O   0  0  0  0  0  0  0  0  0  0  0  0
    2.5646    0.2665   -0.7452 N   0  0  0  0  0  0  0  0  0  0  0  0
    0.3239    0.2216   -0.5648 N   0  0  0  0  0  0  0  0  0  0  0  0
   -6.0702   -2.1130   -0.2104 N   0  0  0  0  0  0  0  0  0  0  0  0
    2.2150    1.6706   -0.6228 C   0  0  0  0  0  0  0  0  0  0  0  0
    3.9387   -0.1911   -0.8656 C   0  0  0  0  0  0  0  0  0  0  0  0
    0.6910    1.5605   -0.5241 C   0  0  0  0  0  0  0  0  0  0  0  0
    1.4530   -0.5871   -0.6958 C   0  0  0  0  0  0  0  0  0  0  0  0
    2.7598    2.2997    0.6581 C   0  0  0  0  0  0  0  0  0  0  0  0
    2.5930    2.4778   -1.8631 C   0  0  0  0  0  0  0  0  0  0  0  0
    4.5896   -0.4533    0.4888 C   0  0  0  0  0  0  0  0  0  0  0  0
   -1.0215   -0.2602   -0.4845 C   0  0  0  0  0  0  0  0  0  0  0  0
    6.0415   -0.9154    0.3613 C   0  0  0  0  0  0  0  0  0  0  0  0
   -1.9824    0.4556    0.2340 C   0  0  0  0  0  0  0  0  0  0  0  0
   -1.3801   -1.4490   -1.1249 C   0  0  0  0  0  0  0  0  0  0  0  0
    6.6574   -1.2085    1.7227 C   0  0  0  0  0  0  0  0  0  0  0  0
   -3.2933   -0.0144    0.3119 C   0  0  0  0  0  0  0  0  0  0  0  0
   -2.6911   -1.9189   -1.0472 C   0  0  0  0  0  0  0  0  0  0  0  0
   -3.6477   -1.2018   -0.3287 C   0  0  0  0  0  0  0  0  0  0  0  0
   -4.2920    0.7806    1.0906 C   0  0  0  0  0  0  0  0  0  0  0  0
   -4.9860   -1.7052   -0.2634 C   0  0  0  0  0  0  0  0  0  0  0  0
    4.5155    0.5389   -1.4408 H   0  0  0  0  0  0  0  0  0  0  0  0
    3.9311   -1.1248   -1.4403 H   0  0  0  0  0  0  0  0  0  0  0  0
    3.8443    2.4390    0.6072 H   0  0  0  0  0  0  0  0  0  0  0  0
    2.3168    3.2882    0.8273 H   0  0  0  0  0  0  0  0  0  0  0  0
    2.5284    1.6887    1.5380 H   0  0  0  0  0  0  0  0  0  0  0  0
    2.1946    2.0160   -2.7740 H   0  0  0  0  0  0  0  0  0  0  0  0
    2.1898    3.4955   -1.8100 H   0  0  0  0  0  0  0  0  0  0  0  0
    3.6785    2.5591   -1.9796 H   0  0  0  0  0  0  0  0  0  0  0  0
    4.0097   -1.2158    1.0243 H   0  0  0  0  0  0  0  0  0  0  0  0
    4.5682    0.4404    1.1169 H   0  0  0  0  0  0  0  0  0  0  0  0
    6.6383   -0.1521   -0.1534 H   0  0  0  0  0  0  0  0  0  0  0  0
    6.0988   -1.8146   -0.2646 H   0  0  0  0  0  0  0  0  0  0  0  0
   -1.7128    1.3615    0.7678 H   0  0  0  0  0  0  0  0  0  0  0  0
   -0.6734   -2.0173   -1.7217 H   0  0  0  0  0  0  0  0  0  0  0  0
    6.1029   -1.9975    2.2406 H   0  0  0  0  0  0  0  0  0  0  0  0
    6.6678   -0.3102    2.3483 H   0  0  0  0  0  0  0  0  0  0  0  0
   -2.9529   -2.8424   -1.5585 H   0  0  0  0  0  0  0  0  0  0  0  0
    8.3632   -1.8248    2.4190 H   0  0  0  0  0  0  0  0  0  0  0  0
  1 25  1  0  0  0  0
  2 25  1  0  0  0  0
  3 25  1  0  0  0  0
  4 12  2  0  0  0  0
  5 13  2  0  0  0  0
  6 21  1  0  0  0  0
  6 44  1  0  0  0  0
  7 10  1  0  0  0  0
  7 11  1  0  0  0  0
  7 13  1  0  0  0  0
  8 12  1  0  0  0  0
  8 13  1  0  0  0  0
  8 17  1  0  0  0  0
  9 26  3  0  0  0  0
 10 12  1  0  0  0  0
 10 14  1  0  0  0  0
 10 15  1  0  0  0  0
 11 16  1  0  0  0  0
 11 27  1  0  0  0  0
 11 28  1  0  0  0  0
 14 29  1  0  0  0  0
 14 30  1  0  0  0  0
 14 31  1  0  0  0  0
 15 32  1  0  0  0  0
 15 33  1  0  0  0  0
 15 34  1  0  0  0  0
 16 18  1  0  0  0  0
 16 35  1  0  0  0  0
 16 36  1  0  0  0  0
 17 19  2  0  0  0  0
 17 20  1  0  0  0  0
 18 21  1  0  0  0  0
 18 37  1  0  0  0  0
 18 38  1  0  0  0  0
 19 22  1  0  0  0  0
 19 39  1  0  0  0  0
 20 23  2  0  0  0  0
 20 40  1  0  0  0  0
 21 41  1  0  0  0  0
 21 42  1  0  0  0  0
 22 24  2  0  0  0  0
 22 25  1  0  0  0  0
 23 24  1  0  0  0  0
 23 43  1  0  0  0  0
 24 26  1  0  0  0  0
M  END
> <PUBCHEM_COMPOUND_CID>
132981

> <PUBCHEM_CONFORMER_RMSD>
0.8

> <PUBCHEM_CONFORMER_DIVERSEORDER>
1
19
29
38
23
7
8
21
25
33
31
30
34
22
37
36
5
16
28
17
32
24
18
15
27
6
3
35
4
26
14
11
10
2
12
9
20
13

> <PUBCHEM_MMFF94_PARTIAL_CHARGES>
26
1 -0.34
10 0.36
11 0.3
12 0.57
13 0.69
17 0.12
19 -0.15
2 -0.34
20 -0.15
21 0.28
22 -0.14
23 -0.15
24 0.07
25 1.16
26 0.48
3 -0.34
39 0.15
4 -0.57
40 0.15
43 0.15
44 0.4
5 -0.57
6 -0.68
7 -0.66
8 -0.24
9 -0.56

> <PUBCHEM_EFFECTIVE_ROTOR_COUNT>
6.6

> <PUBCHEM_PHARMACOPHORE_FEATURES>
8
1 4 acceptor
1 5 acceptor
1 6 acceptor
1 6 donor
1 9 acceptor
3 10 14 15 hydrophobe
5 7 8 10 12 13 rings
6 17 19 20 22 23 24 rings

> <PUBCHEM_HEAVY_ATOM_COUNT>
26

> <PUBCHEM_ATOM_DEF_STEREO_COUNT>
0

> <PUBCHEM_ATOM_UDEF_STEREO_COUNT>
0

> <PUBCHEM_BOND_DEF_STEREO_COUNT>
0

> <PUBCHEM_BOND_UDEF_STEREO_COUNT>
0

> <PUBCHEM_ISOTOPIC_ATOM_COUNT>
0

> <PUBCHEM_COMPONENT_COUNT>
1

> <PUBCHEM_CACTVS_TAUTO_COUNT>
1

> <PUBCHEM_CONFORMER_ID>
0002077500000001

> <PUBCHEM_MMFF94_ENERGY>
57.9012

> <PUBCHEM_FEATURE_SELFOVERLAP>
40.597

> <PUBCHEM_SHAPE_FINGERPRINT>
10 15 17560793364647231106
10319926 262 17775283876595216146
12107183 9 18338802208492548729
12236239 1 18410576214302820399
12403259 118 18201727253783376713
12422481 6 18342456985548957702
12633257 1 18408046220872947470
12760667 363 17822289050954960834
13140716 1 18340770441854159508
13257819 101 14548732868608061336
13540713 5 18196371635697191924
13583140 156 18041012717699788465
13782708 43 16370732555786639394
13862211 1 18259981570467572054
14251764 18 18411417345710460938
14466204 15 18130790036166074040
14739800 52 17629758135455817848
14849402 71 18198623422996065312
15196674 1 18271534190516575069
15461852 350 16845564344433264405
1813 80 18113342986099571646
20028762 73 18343301504652918366
20739085 24 18334302006416502660
21033648 29 15626236718501969553
21267235 1 18271258217218981983
21637258 2 17240473694568088778
21792934 111 18131631223461102195
22182313 1 18053106125354590964
23522609 53 18117588221891019780
25147074 1 18338807817994079132
2838139 119 13398620650701919506
474 4 18044945811830269613
5104073 3 18270690882029754273
559249 180 18409444782979461767
6058803 2 18123758818231013621
9981440 41 17043444809326042265

> <PUBCHEM_SHAPE_MULTIPOLES>
480.7
15.3
2.56
1.47
11.84
0.97
0.4
-9.41
8.32
0.52
-0.32
0.4
0.19
-2.92

> <PUBCHEM_SHAPE_SELFOVERLAP>
1016.615

> <PUBCHEM_SHAPE_VOLUME>
272.4

> <PUBCHEM_COORDINATE_TYPE>
2
5
10

$$$$
