11370864
  -OEChem-06122613513D

 44 46  0     1  0  0  0  0  0999 V2000
   -3.9700    0.0925    2.3947 Cl  0  0  0  0  0  0  0  0  0  0  0  0
   -5.6291   -0.7914   -0.2390 Cl  0  0  0  0  0  0  0  0  0  0  0  0
    2.1011   -2.3565    0.2794 O   0  0  0  0  0  0  0  0  0  0  0  0
    2.5408    1.7728    0.9090 N   0  0  1  0  0  0  0  0  0  0  0  0
    2.5660    0.4490    0.2738 C   0  0  1  0  0  0  0  0  0  0  0  0
    1.8758    2.6252   -0.0797 C   0  0  2  0  0  0  0  0  0  0  0  0
    1.1446   -0.1699    0.1435 C   0  0  1  0  0  0  0  0  0  0  0  0
    0.1845    0.7654   -0.6496 C   0  0  2  0  0  0  0  0  0  0  0  0
    0.3922    2.2534   -0.2742 C   0  0  0  0  0  0  0  0  0  0  0  0
    3.1808    0.8422   -1.0789 C   0  0  0  0  0  0  0  0  0  0  0  0
    2.7096    2.2827   -1.3191 C   0  0  0  0  0  0  0  0  0  0  0  0
    1.2073   -1.5705   -0.4827 C   0  0  0  0  0  0  0  0  0  0  0  0
   -1.2804    0.3752   -0.5295 C   0  0  0  0  0  0  0  0  0  0  0  0
    2.0110    1.8301    2.2577 C   0  0  0  0  0  0  0  0  0  0  0  0
   -1.9033    0.4001    0.7152 C   0  0  0  0  0  0  0  0  0  0  0  0
   -1.9903   -0.0041   -1.6652 C   0  0  0  0  0  0  0  0  0  0  0  0
    2.2173   -3.6783   -0.2377 C   0  0  0  0  0  0  0  0  0  0  0  0
   -3.2471    0.0428    0.8250 C   0  0  0  0  0  0  0  0  0  0  0  0
   -3.3341   -0.3615   -1.5553 C   0  0  0  0  0  0  0  0  0  0  0  0
   -3.9625   -0.3380   -0.3102 C   0  0  0  0  0  0  0  0  0  0  0  0
    3.1859   -4.4611    0.6229 C   0  0  0  0  0  0  0  0  0  0  0  0
    3.2417   -0.2213    0.8162 H   0  0  0  0  0  0  0  0  0  0  0  0
    1.9695    3.6888    0.1658 H   0  0  0  0  0  0  0  0  0  0  0  0
    0.7657   -0.3139    1.1636 H   0  0  0  0  0  0  0  0  0  0  0  0
    0.4561    0.6761   -1.7113 H   0  0  0  0  0  0  0  0  0  0  0  0
   -0.0376    2.8815   -1.0662 H   0  0  0  0  0  0  0  0  0  0  0  0
   -0.1594    2.5164    0.6361 H   0  0  0  0  0  0  0  0  0  0  0  0
    2.8989    0.1839   -1.9046 H   0  0  0  0  0  0  0  0  0  0  0  0
    4.2764    0.8295   -1.0151 H   0  0  0  0  0  0  0  0  0  0  0  0
    3.5835    2.9419   -1.3910 H   0  0  0  0  0  0  0  0  0  0  0  0
    2.1456    2.3789   -2.2527 H   0  0  0  0  0  0  0  0  0  0  0  0
    1.5407   -1.5279   -1.5252 H   0  0  0  0  0  0  0  0  0  0  0  0
    0.2150   -2.0358   -0.4623 H   0  0  0  0  0  0  0  0  0  0  0  0
    0.9607    1.5405    2.3452 H   0  0  0  0  0  0  0  0  0  0  0  0
    2.1079    2.8469    2.6539 H   0  0  0  0  0  0  0  0  0  0  0  0
    2.5939    1.1794    2.9187 H   0  0  0  0  0  0  0  0  0  0  0  0
   -1.3489    0.6947    1.6025 H   0  0  0  0  0  0  0  0  0  0  0  0
   -1.5148   -0.0279   -2.6418 H   0  0  0  0  0  0  0  0  0  0  0  0
    1.2363   -4.1664   -0.2282 H   0  0  0  0  0  0  0  0  0  0  0  0
    2.5867   -3.6402   -1.2685 H   0  0  0  0  0  0  0  0  0  0  0  0
   -3.8765   -0.6559   -2.4504 H   0  0  0  0  0  0  0  0  0  0  0  0
    3.2996   -5.4838    0.2526 H   0  0  0  0  0  0  0  0  0  0  0  0
    4.1685   -3.9778    0.6344 H   0  0  0  0  0  0  0  0  0  0  0  0
    2.8372   -4.4974    1.6603 H   0  0  0  0  0  0  0  0  0  0  0  0
  1 18  1  0  0  0  0
  2 20  1  0  0  0  0
  3 12  1  0  0  0  0
  3 17  1  0  0  0  0
  4  5  1  0  0  0  0
  4  6  1  0  0  0  0
  4 14  1  0  0  0  0
  5  7  1  0  0  0  0
  5 10  1  0  0  0  0
  5 22  1  0  0  0  0
  6  9  1  0  0  0  0
  6 11  1  0  0  0  0
  6 23  1  0  0  0  0
  7  8  1  0  0  0  0
  7 12  1  0  0  0  0
  7 24  1  0  0  0  0
  8  9  1  0  0  0  0
  8 13  1  0  0  0  0
  8 25  1  0  0  0  0
  9 26  1  0  0  0  0
  9 27  1  0  0  0  0
 10 11  1  0  0  0  0
 10 28  1  0  0  0  0
 10 29  1  0  0  0  0
 11 30  1  0  0  0  0
 11 31  1  0  0  0  0
 12 32  1  0  0  0  0
 12 33  1  0  0  0  0
 13 15  2  0  0  0  0
 13 16  1  0  0  0  0
 14 34  1  0  0  0  0
 14 35  1  0  0  0  0
 14 36  1  0  0  0  0
 15 18  1  0  0  0  0
 15 37  1  0  0  0  0
 16 19  2  0  0  0  0
 16 38  1  0  0  0  0
 17 21  1  0  0  0  0
 17 39  1  0  0  0  0
 17 40  1  0  0  0  0
 18 20  2  0  0  0  0
 19 20  1  0  0  0  0
 19 41  1  0  0  0  0
 21 42  1  0  0  0  0
 21 43  1  0  0  0  0
 21 44  1  0  0  0  0
M  END
> <PUBCHEM_COMPOUND_CID>
11370864

> <PUBCHEM_CONFORMER_RMSD>
0.8

> <PUBCHEM_CONFORMER_DIVERSEORDER>
1
3
9
8
4
12
5
7
6
11
10
2

> <PUBCHEM_MMFF94_PARTIAL_CHARGES>
19
1 -0.18
12 0.28
13 -0.14
14 0.27
15 -0.15
16 -0.15
17 0.28
18 0.18
19 -0.15
2 -0.18
20 0.18
3 -0.56
37 0.15
38 0.15
4 -0.81
41 0.15
5 0.27
6 0.27
8 0.14

> <PUBCHEM_EFFECTIVE_ROTOR_COUNT>
5.2

> <PUBCHEM_PHARMACOPHORE_FEATURES>
4
1 3 acceptor
1 4 cation
6 13 15 16 18 19 20 rings
8 4 5 6 7 8 9 10 11 rings

> <PUBCHEM_HEAVY_ATOM_COUNT>
21

> <PUBCHEM_ATOM_DEF_STEREO_COUNT>
4

> <PUBCHEM_ATOM_UDEF_STEREO_COUNT>
0

> <PUBCHEM_BOND_DEF_STEREO_COUNT>
0

> <PUBCHEM_BOND_UDEF_STEREO_COUNT>
0

> <PUBCHEM_ISOTOPIC_ATOM_COUNT>
0

> <PUBCHEM_COMPONENT_COUNT>
1

> <PUBCHEM_CACTVS_TAUTO_COUNT>
1

> <PUBCHEM_CONFORMER_ID>
00AD817000000001

> <PUBCHEM_MMFF94_ENERGY>
54.8021

> <PUBCHEM_FEATURE_SELFOVERLAP>
20.297

> <PUBCHEM_SHAPE_FINGERPRINT>
10366900 7 18341343291807561577
12236239 1 17846224405421619501
12363563 72 18047187453798782242
12553582 1 18052827948512629038
12592029 89 18337949103791856807
12788726 201 16965186506483034107
13009979 54 17773601516045960323
13140716 1 18196362839525112802
13533116 47 18412829080181394979
13583140 156 18200335293943683585
13955234 65 18410574011121910219
14022347 108 16515690996772963725
14178342 30 18127115597002071435
14289901 80 18408606993905657833
14787075 74 16692987538466663373
14844126 61 17328565233897308226
15309172 13 18192434288463144461
16752209 62 16343708725288190429
16945 1 18337104661212701532
1813 80 17984430637336688750
18186145 218 18129941320474364909
19078846 21 17702955720728661833
20600515 1 17622727509940458684
20645477 70 18187640323550768351
21285901 2 17749374984893695679
21452121 199 18116988884889562146
2255824 54 18340770433280094788
23526113 38 17895476916738751179
23559900 14 18261664866781790903
23598291 2 17987815007367598043
3060560 45 18262238953416976356
3421961 26 18338510846575001415
458136 41 18263380216199939470
474 4 18056477485529907137
59682541 52 18193809649641292527
633830 44 17986127398489671445
6442390 28 17977116978077789642
70251023 43 18191016816697151179
7097593 13 18058455296541961555
7615 1 17846492609101969841
81228 2 17115789913027641950
8272917 22 18410015442425313069

> <PUBCHEM_SHAPE_MULTIPOLES>
425.06
8.16
3.79
1.73
10.68
5.07
0.75
2.36
0.61
-7.26
0.5
0.9
-0.64
-0.58

> <PUBCHEM_SHAPE_SELFOVERLAP>
875.53

> <PUBCHEM_SHAPE_VOLUME>
246.5

> <PUBCHEM_COORDINATE_TYPE>
2
5
10

$$$$
