119058028
  -OEChem-06122613523D

 65 69  0     1  0  0  0  0  0999 V2000
   -3.6238   -0.6594    1.0981 O   0  0  0  0  0  0  0  0  0  0  0  0
   -3.9212   -0.5055   -1.2348 O   0  0  0  0  0  0  0  0  0  0  0  0
   -3.8637   -2.6116   -0.1940 O   0  0  0  0  0  0  0  0  0  0  0  0
    7.0365   -0.5117   -1.2713 O   0  0  0  0  0  0  0  0  0  0  0  0
   -0.6232    2.4838   -1.9205 O   0  0  0  0  0  0  0  0  0  0  0  0
   -1.9253    3.2048   -0.1528 O   0  0  0  0  0  0  0  0  0  0  0  0
   -1.1609   -0.5296    0.8231 C   0  0  1  0  0  0  0  0  0  0  0  0
   -0.2359    0.7082    0.8385 C   0  0  2  0  0  0  0  0  0  0  0  0
    1.2223    0.3645    1.1605 C   0  0  1  0  0  0  0  0  0  0  0  0
   -2.5544    0.1555    0.6088 C   0  0  2  0  0  0  0  0  0  0  0  0
    1.7594   -0.6178    0.0801 C   0  0  2  0  0  0  0  0  0  0  0  0
   -0.6522   -1.4747   -0.2811 C   0  0  0  0  0  0  0  0  0  0  0  0
   -0.9654    1.6943    1.7451 C   0  0  0  0  0  0  0  0  0  0  0  0
   -2.4615    1.4237    1.5003 C   0  0  0  0  0  0  0  0  0  0  0  0
    0.8309   -1.8447   -0.0935 C   0  0  0  0  0  0  0  0  0  0  0  0
    3.2364   -1.0240    0.3731 C   0  0  2  0  0  0  0  0  0  0  0  0
    2.1085    1.6159    1.2117 C   0  0  0  0  0  0  0  0  0  0  0  0
   -1.1732   -1.3078    2.1717 C   0  0  0  0  0  0  0  0  0  0  0  0
   -2.9791    0.4160   -0.8093 C   0  0  0  0  0  0  0  0  0  0  0  0
    3.5478    1.2444    1.5502 C   0  0  0  0  0  0  0  0  0  0  0  0
    4.1066    0.2028    0.6131 C   0  0  0  0  0  0  0  0  0  0  0  0
    3.7896   -1.9037   -0.7672 C   0  0  0  0  0  0  0  0  0  0  0  0
   -4.2448   -1.2433   -0.0510 C   0  0  1  0  0  0  0  0  0  0  0  0
    5.2986   -2.0619   -0.7040 C   0  0  0  0  0  0  0  0  0  0  0  0
    5.3261    0.3723    0.0774 C   0  0  0  0  0  0  0  0  0  0  0  0
   -2.6330    1.4323   -1.6081 C   0  0  0  0  0  0  0  0  0  0  0  0
    5.9621   -0.7095   -0.7088 C   0  0  0  0  0  0  0  0  0  0  0  0
   -5.7555   -1.1550    0.1556 C   0  0  0  0  0  0  0  0  0  0  0  0
   -1.7185    2.4807   -1.1138 C   0  0  0  0  0  0  0  0  0  0  0  0
   -4.1151   -3.0868   -1.5089 C   0  0  0  0  0  0  0  0  0  0  0  0
    0.3818    3.4477   -1.5881 C   0  0  0  0  0  0  0  0  0  0  0  0
   -0.1812    1.1012   -0.1665 H   0  0  0  0  0  0  0  0  0  0  0  0
    1.2791   -0.1164    2.1446 H   0  0  0  0  0  0  0  0  0  0  0  0
    1.7502   -0.0813   -0.8819 H   0  0  0  0  0  0  0  0  0  0  0  0
   -0.7548   -1.0078   -1.2679 H   0  0  0  0  0  0  0  0  0  0  0  0
   -1.2460   -2.3943   -0.3091 H   0  0  0  0  0  0  0  0  0  0  0  0
   -0.6562    2.7314    1.6001 H   0  0  0  0  0  0  0  0  0  0  0  0
   -0.7308    1.4799    2.7962 H   0  0  0  0  0  0  0  0  0  0  0  0
   -2.8802    1.1657    2.4867 H   0  0  0  0  0  0  0  0  0  0  0  0
   -3.1215    2.2494    1.2284 H   0  0  0  0  0  0  0  0  0  0  0  0
    0.9432   -2.5179    0.7640 H   0  0  0  0  0  0  0  0  0  0  0  0
    1.1364   -2.4213   -0.9742 H   0  0  0  0  0  0  0  0  0  0  0  0
    3.2560   -1.6153    1.2996 H   0  0  0  0  0  0  0  0  0  0  0  0
    1.7387    2.3183    1.9669 H   0  0  0  0  0  0  0  0  0  0  0  0
    2.0897    2.1354    0.2483 H   0  0  0  0  0  0  0  0  0  0  0  0
   -0.1850   -1.6703    2.4651 H   0  0  0  0  0  0  0  0  0  0  0  0
   -1.8196   -2.1904    2.0988 H   0  0  0  0  0  0  0  0  0  0  0  0
   -1.5454   -0.7044    3.0050 H   0  0  0  0  0  0  0  0  0  0  0  0
    3.5877    0.8462    2.5723 H   0  0  0  0  0  0  0  0  0  0  0  0
    4.1588    2.1552    1.5460 H   0  0  0  0  0  0  0  0  0  0  0  0
    3.5208   -1.4639   -1.7372 H   0  0  0  0  0  0  0  0  0  0  0  0
    3.3336   -2.8996   -0.7305 H   0  0  0  0  0  0  0  0  0  0  0  0
    5.6430   -2.6265   -1.5771 H   0  0  0  0  0  0  0  0  0  0  0  0
    5.6062   -2.6001    0.1990 H   0  0  0  0  0  0  0  0  0  0  0  0
    5.9164    1.2645    0.2554 H   0  0  0  0  0  0  0  0  0  0  0  0
   -3.0010    1.5166   -2.6240 H   0  0  0  0  0  0  0  0  0  0  0  0
   -6.0681   -1.7769    1.0014 H   0  0  0  0  0  0  0  0  0  0  0  0
   -6.3191   -1.4734   -0.7261 H   0  0  0  0  0  0  0  0  0  0  0  0
   -6.0548   -0.1233    0.3732 H   0  0  0  0  0  0  0  0  0  0  0  0
   -5.1502   -2.9318   -1.8230 H   0  0  0  0  0  0  0  0  0  0  0  0
   -3.4212   -2.6412   -2.2286 H   0  0  0  0  0  0  0  0  0  0  0  0
   -3.9292   -4.1653   -1.5094 H   0  0  0  0  0  0  0  0  0  0  0  0
    1.3461    3.0613   -1.9289 H   0  0  0  0  0  0  0  0  0  0  0  0
    0.4421    3.6411   -0.5135 H   0  0  0  0  0  0  0  0  0  0  0  0
    0.1704    4.3784   -2.1220 H   0  0  0  0  0  0  0  0  0  0  0  0
  1 10  1  0  0  0  0
  1 23  1  0  0  0  0
  2 19  1  0  0  0  0
  2 23  1  0  0  0  0
  3 23  1  0  0  0  0
  3 30  1  0  0  0  0
  4 27  2  0  0  0  0
  5 29  1  0  0  0  0
  5 31  1  0  0  0  0
  6 29  2  0  0  0  0
  7  8  1  0  0  0  0
  7 10  1  0  0  0  0
  7 12  1  0  0  0  0
  7 18  1  0  0  0  0
  8  9  1  0  0  0  0
  8 13  1  0  0  0  0
  8 32  1  0  0  0  0
  9 11  1  0  0  0  0
  9 17  1  0  0  0  0
  9 33  1  0  0  0  0
 10 14  1  0  0  0  0
 10 19  1  0  0  0  0
 11 15  1  0  0  0  0
 11 16  1  0  0  0  0
 11 34  1  0  0  0  0
 12 15  1  0  0  0  0
 12 35  1  0  0  0  0
 12 36  1  0  0  0  0
 13 14  1  0  0  0  0
 13 37  1  0  0  0  0
 13 38  1  0  0  0  0
 14 39  1  0  0  0  0
 14 40  1  0  0  0  0
 15 41  1  0  0  0  0
 15 42  1  0  0  0  0
 16 21  1  0  0  0  0
 16 22  1  0  0  0  0
 16 43  1  0  0  0  0
 17 20  1  0  0  0  0
 17 44  1  0  0  0  0
 17 45  1  0  0  0  0
 18 46  1  0  0  0  0
 18 47  1  0  0  0  0
 18 48  1  0  0  0  0
 19 26  2  0  0  0  0
 20 21  1  0  0  0  0
 20 49  1  0  0  0  0
 20 50  1  0  0  0  0
 21 25  2  0  0  0  0
 22 24  1  0  0  0  0
 22 51  1  0  0  0  0
 22 52  1  0  0  0  0
 23 28  1  0  0  0  0
 24 27  1  0  0  0  0
 24 53  1  0  0  0  0
 24 54  1  0  0  0  0
 25 27  1  0  0  0  0
 25 55  1  0  0  0  0
 26 29  1  0  0  0  0
 26 56  1  0  0  0  0
 28 57  1  0  0  0  0
 28 58  1  0  0  0  0
 28 59  1  0  0  0  0
 30 60  1  0  0  0  0
 30 61  1  0  0  0  0
 30 62  1  0  0  0  0
 31 63  1  0  0  0  0
 31 64  1  0  0  0  0
 31 65  1  0  0  0  0
M  END
> <PUBCHEM_COMPOUND_CID>
119058028

> <PUBCHEM_CONFORMER_RMSD>
0.8

> <PUBCHEM_CONFORMER_DIVERSEORDER>
1
4
3
2

> <PUBCHEM_MMFF94_PARTIAL_CHARGES>
21
1 -0.56
10 0.42
16 0.14
19 -0.06
2 -0.36
20 0.14
21 -0.28
23 0.84
24 0.06
25 -0.14
26 -0.14
27 0.49
29 0.71
3 -0.56
30 0.28
31 0.28
4 -0.57
5 -0.43
55 0.15
56 0.15
6 -0.57

> <PUBCHEM_EFFECTIVE_ROTOR_COUNT>
5.2

> <PUBCHEM_PHARMACOPHORE_FEATURES>
10
1 1 acceptor
1 2 acceptor
1 3 acceptor
1 4 acceptor
1 6 acceptor
5 1 2 10 19 23 rings
5 7 8 10 13 14 rings
6 16 21 22 24 25 27 rings
6 7 8 9 11 12 15 rings
6 9 11 16 17 20 21 rings

> <PUBCHEM_HEAVY_ATOM_COUNT>
31

> <PUBCHEM_ATOM_DEF_STEREO_COUNT>
6

> <PUBCHEM_ATOM_UDEF_STEREO_COUNT>
1

> <PUBCHEM_BOND_DEF_STEREO_COUNT>
1

> <PUBCHEM_BOND_UDEF_STEREO_COUNT>
0

> <PUBCHEM_ISOTOPIC_ATOM_COUNT>
0

> <PUBCHEM_COMPONENT_COUNT>
1

> <PUBCHEM_CACTVS_TAUTO_COUNT>
8

> <PUBCHEM_CONFORMER_ID>
0718AE6C00000001

> <PUBCHEM_MMFF94_ENERGY>
117.2694

> <PUBCHEM_FEATURE_SELFOVERLAP>
50.977

> <PUBCHEM_SHAPE_FINGERPRINT>
10366900 7 18187085061789384378
10498660 4 17895747396889496868
10670039 82 17967536727860453836
11477941 20 18113900472707218020
11578080 2 17971756558270655413
12166972 35 18409735084224677148
12236239 1 16415481570766852330
12403259 226 18341041961112612888
12403259 415 18341606010561876728
12633257 1 11743832556611793074
12788726 201 17676762098090842152
13224815 77 18410852127608054256
13782708 43 18412547575103217134
14178342 30 10879700026891756089
14347332 77 18411131399198463970
14910302 57 18342166770102861586
14955137 171 18264778825862285483
15840311 113 18200877379146700497
15849732 13 18410862036889072329
15961568 22 17969219105137379492
16994733 274 13984927495493657711
17349148 13 17676486146653050930
17357779 13 18335689559714553245
1813 80 18261107521776534425
20775530 9 18270104859750168415
21033648 29 18340195328748723480
21267235 1 17988651812656897738
21344244 246 17829050158048792165
21403212 168 10087650286526541927
221357 26 18343299254199811186
22182313 1 18199727229316401968
22393880 68 18338509730131171026
23402539 116 18113612391706503003
23522609 53 17629516156808262688
23557571 272 18333445443729040865
23559900 14 18130499842294905106
350125 39 18271812297785056658
4058900 60 17406555806149238193
46194498 28 18335983164396430132
469060 322 18114755858050756841
497634 4 18130514054252022800
5104073 3 17632576016274773322
531348 171 18118966893418241742
59755656 215 18272370845360465879
7237137 82 18409733928588207382

> <PUBCHEM_SHAPE_MULTIPOLES>
602.75
11.83
3.24
1.77
12.64
1.07
0.06
-7.35
-3.29
-2.06
-1.51
-0.52
0.74
0.71

> <PUBCHEM_SHAPE_SELFOVERLAP>
1305.91

> <PUBCHEM_SHAPE_VOLUME>
325.5

> <PUBCHEM_COORDINATE_TYPE>
2
5
10

$$$$
